TITL Al-4208-6057-2518 0.0000000000 8000.0000000000 -170.9355341417 0 0 38 (C3) n - 1
REM
REM Run started: at Wed 1 Jul 17:15:20 BST 2020 in /home/jrjturnbull/SummerProject/AIRSS/1_LJ/5
REM pp3 from code version 0.9.1 bugfix July 2018 build 013d7b7c2542+ Fri, 06 Jul 2018 19:26:36 +0100
REM
REM
REM
REM
REM ./Al.cell (8c8ae6df4c88efabe4452be374df77f8)
REM AIRSS Version 0.9.1 bugfix July 2018 build 013d7b7c2542+ Fri, 06 Jul 2018 19:26:36 +0100
REM compiler GCC version 7.5.0
REM options -cpp -imultiarch x86_64-linux-gnu -mtune=generic -march=x86-64 -g -O0
REM seed -499180339 -1590034924 719643265 -2117669012 473096638 -2139699997 -122145440 581618474 -963895502 62525266 -163701714 -215932502 -14784377 -625754441 343552707 846588042 -715731380 -42124415 -286623999 -96143477 1090439023 -1895460807 1454247225 659698761 -1190045021 -1321947810 -1012367891 -1127650457 -645762776 963881380 2129920680 1250907153 539086026
REM
REM Al.pp (e4fc5d4412d1ecf009fcd5f92cd21f1b)
REM 
CELL 1.54180   20.00000   20.00000   20.00000   90.00000   90.00000   90.00000
LATT -1
SFAC Al 
Al     1  0.3511778341763  0.5807956519271  0.4442532954710 1.0
Al     1  0.4544226254737  0.4049449038619  0.3429768252904 1.0
Al     1  0.4221654775872  0.4613223817856  0.4882820220101 1.0
Al     1  0.5222077124999  0.6329993711551  0.5012134858109 1.0
Al     1  0.4390388857897  0.6631772940166  0.4338899834068 1.0
Al     1  0.5305407010108  0.5977214353490  0.3915372568285 1.0
Al     1  0.6004312682419  0.5683106218462  0.6680653818651 1.0
Al     1  0.5550933492159  0.5340298900634  0.4821009172196 1.0
Al     1  0.5197409000935  0.4392231821795  0.5207403742884 1.0
Al     1  0.6252268615149  0.4178278620412  0.5630306375011 1.0
Al     1  0.4164089156811  0.6221726928995  0.5352881022096 1.0
Al     1  0.4444944641093  0.3623378717130  0.5335732043647 1.0
Al     1  0.3184150959249  0.4736659196064  0.4541471330978 1.0
Al     1  0.3427107793810  0.4080190996176  0.5389003426910 1.0
Al     1  0.5029614247838  0.4688882752151  0.4180562863566 1.0
Al     1  0.3601549720689  0.5268317730101  0.5443824870709 1.0
Al     1  0.5251339341817  0.4040040807621  0.6203077273097 1.0
Al     1  0.6272886544659  0.6051281999326  0.4456511379268 1.0
Al     1  0.4536321742417  0.5576136964291  0.4528601155887 1.0
Al     1  0.6005084096346  0.5116142069286  0.3863247828971 1.0
Al     1  0.5557984457362  0.3382066011428  0.5302913960452 1.0
Al     1  0.4253818605026  0.4497200766916  0.6004368006377 1.0
Al     1  0.4998282312785  0.5125040761066  0.3221593772630 1.0
Al     1  0.6558110014697  0.5065301551105  0.4989189682901 1.0
Al     1  0.5009422334034  0.5067674364064  0.6623582557964 1.0
Al     1  0.4731445246615  0.5315652089434  0.5528782481701 1.0
Al     1  0.5004254785291  0.3645126091446  0.4376352185793 1.0
Al     1  0.4004378586240  0.4900014490019  0.3843747932644 1.0
Al     1  0.5719252015948  0.5072231059405  0.5835294092449 1.0
Al     1  0.5994347249758  0.4220029801112  0.4529607871820 1.0
Al     1  0.6157022749484  0.5996946929122  0.5555053178470 1.0
Al     1  0.4251257627097  0.5910570895369  0.3521098344446 1.0
Al     1  0.6069158536593  0.4561604951891  0.6721797061325 1.0
Al     1  0.5164589075294  0.6092900934019  0.6100257259138 1.0
Al     1  0.4119559318386  0.5662099190826  0.6344344778181 1.0
Al     1  0.3876959297803  0.3804593592896  0.4301322657724 1.0
Al     1  0.5639126517164  0.4133042092915  0.3479716047406 1.0
Al     1  0.6773484869662  0.5141620323578  0.6065162136538 1.0
END
