TITL Al-4208-6057-2752 0.0000000000 8000.0000000000 -170.9028831766 0 0 38 (Cs) n - 1
REM
REM Run started: at Wed 1 Jul 17:15:35 BST 2020 in /home/jrjturnbull/SummerProject/AIRSS/1_LJ/5
REM pp3 from code version 0.9.1 bugfix July 2018 build 013d7b7c2542+ Fri, 06 Jul 2018 19:26:36 +0100
REM
REM
REM
REM
REM ./Al.cell (8c8ae6df4c88efabe4452be374df77f8)
REM AIRSS Version 0.9.1 bugfix July 2018 build 013d7b7c2542+ Fri, 06 Jul 2018 19:26:36 +0100
REM compiler GCC version 7.5.0
REM options -cpp -imultiarch x86_64-linux-gnu -mtune=generic -march=x86-64 -g -O0
REM seed 1836820827 29066020 244753095 617034532 1032484818 -171402821 -1053105800 1654407398 -1451874583 -558334284 285097057 1854686534 -1635317637 1842775351 458891924 -2142333699 -1325488369 -4847002 598405601 -1900508103 -2098075585 552160133 -1541043042 341180427 1074709473 -1637927136 713805321 -1675531728 1776576523 -521043334 -201064063 -36266677 653071720
REM
REM Al.pp (e4fc5d4412d1ecf009fcd5f92cd21f1b)
REM 
CELL 1.54180   20.00000   20.00000   20.00000   90.00000   90.00000   90.00000
LATT -1
SFAC Al 
Al     1  0.6088572308285  0.5205734789975  0.3701274063461 1.0
Al     1  0.3905826923535  0.6140447329662  0.4715740164112 1.0
Al     1  0.4975354584054  0.5246523529989  0.3552330051738 1.0
Al     1  0.5527214564662  0.6170820758009  0.3875177610667 1.0
Al     1  0.5148379653742  0.5521356027082  0.6361942137348 1.0
Al     1  0.4613005763489  0.4591187759916  0.6019539848483 1.0
Al     1  0.4441589686216  0.4691500892289  0.4909488310951 1.0
Al     1  0.6234414592488  0.4616651903219  0.5173409653342 1.0
Al     1  0.3469353715695  0.5166224677993  0.5061916798704 1.0
Al     1  0.6395595989260  0.6441033921328  0.5259355459603 1.0
Al     1  0.5669303163111  0.3428756033662  0.6047172527255 1.0
Al     1  0.6173920660002  0.3520712301090  0.5035653321387 1.0
Al     1  0.6171659953208  0.5527288303357  0.5855902259515 1.0
Al     1  0.4165605719497  0.6013894038556  0.6512995204241 1.0
Al     1  0.4344492755929  0.6665859749786  0.5602386300430 1.0
Al     1  0.4537759067995  0.4275787012207  0.3898375576560 1.0
Al     1  0.4419608023507  0.6198909578297  0.3728781043883 1.0
Al     1  0.5529167501012  0.4291358486005  0.3385056084036 1.0
Al     1  0.4867654890880  0.5641020505282  0.4569584575810 1.0
Al     1  0.3396455940165  0.6073005168738  0.5704479144069 1.0
Al     1  0.5411166795421  0.4706615929935  0.4401212375039 1.0
Al     1  0.5255423543611  0.4059427421413  0.5265108665424 1.0
Al     1  0.4371660752911  0.5578787696048  0.5538884628186 1.0
Al     1  0.3549992665546  0.4261395771628  0.4418299362720 1.0
Al     1  0.5326261544665  0.6177953173649  0.5454738673822 1.0
Al     1  0.3720262335590  0.4161719006299  0.5521106583419 1.0
Al     1  0.5959368786916  0.5610453698427  0.4709070640058 1.0
Al     1  0.4870224977684  0.6725432494510  0.4611539474261 1.0
Al     1  0.4375464841238  0.3608443056743  0.4781218783097 1.0
Al     1  0.5308455146408  0.5109843183163  0.5386120347539 1.0
Al     1  0.3632564379734  0.5076257899230  0.6164576422354 1.0
Al     1  0.5725846825389  0.4528571570717  0.6183053816552 1.0
Al     1  0.5206351205015  0.2961441438047  0.5143802560358 1.0
Al     1  0.6969281058843  0.5454748356328  0.5081636494957 1.0
Al     1  0.3982872406832  0.5229746615233  0.4070271184646 1.0
Al     1  0.5370316847422  0.3622701749835  0.4262063117433 1.0
Al     1  0.4550380312070  0.3498360452106  0.5880254867947 1.0
Al     1  0.6339171117976  0.4200029720254  0.4156482866596 1.0
END
