TITL Al-27953-9470-83 0.0000000000 8000.0000000000 -38.8982933429 0 0 13 (C1) n - 1
REM
REM Run started: at Tue 30 Jun 17:39:30 BST 2020 in /home/jrjturnbull/SummerProject/AIRSS/1.02
REM pp3 from code version 0.9.1 bugfix July 2018 build 013d7b7c2542+ Fri, 06 Jul 2018 19:26:36 +0100
REM
REM
REM
REM
REM ./Al.cell (76cc387463606fc40a5500d88fd3c488)
REM AIRSS Version 0.9.1 bugfix July 2018 build 013d7b7c2542+ Fri, 06 Jul 2018 19:26:36 +0100
REM compiler GCC version 7.5.0
REM options -cpp -imultiarch x86_64-linux-gnu -mtune=generic -march=x86-64 -g -O0
REM seed -301425568 -357701702 -1167944629 1320455121 -540218923 -2039221755 716130048 -158332231 -173539077 1466769069 -1025261665 -946695592 -606021503 924571554 -1357087332 1221163465 107493367 -945237071 943884172 -1971637190 1158068688 1404971823 -134029934 -1376223902 -2064434025 1240028100 -1711940337 -1316318040 -317853235 -1786657586 -829483639 -1004249559 -861184592
REM
REM Al.pp (7ffb3a73ed3dc74a46198e313fe0f926)
REM 
CELL 1.54180   20.00000   20.00000   20.00000   90.00000   90.00000   90.00000
LATT -1
SFAC Al 
Al     1  0.3682469799454  0.5729914927839  0.5039254192721 1.0
Al     1  0.4394960934787  0.4971364914558  0.4657539953929 1.0
Al     1  0.5294499012596  0.4384996109171  0.4347359165329 1.0
Al     1  0.4553758066655  0.6043423147198  0.4404140470511 1.0
Al     1  0.5436157653559  0.5426781273664  0.4674707875836 1.0
Al     1  0.4949768672791  0.5160167045562  0.6404932718098 1.0
Al     1  0.5784817059345  0.5476392048214  0.5725158530261 1.0
Al     1  0.5562272891615  0.3685981156140  0.5171812930178 1.0
Al     1  0.4480583161918  0.3890543184371  0.4924638687419 1.0
Al     1  0.4711487750729  0.5698962058654  0.5459604478635 1.0
Al     1  0.6134897222801  0.4645698782115  0.5045168290234 1.0
Al     1  0.4914499266464  0.5229284052949  0.3714282745208 1.0
Al     1  0.5099829507284  0.4656490299565  0.5431399961640 1.0
END
