TITL Al-27953-9470-22 0.0000000000 8000.0000000000 -40.6026953876 0 0 13 (C1) n - 1
REM
REM Run started: at Tue 30 Jun 17:39:24 BST 2020 in /home/jrjturnbull/SummerProject/AIRSS/1.02
REM pp3 from code version 0.9.1 bugfix July 2018 build 013d7b7c2542+ Fri, 06 Jul 2018 19:26:36 +0100
REM
REM
REM
REM
REM ./Al.cell (76cc387463606fc40a5500d88fd3c488)
REM AIRSS Version 0.9.1 bugfix July 2018 build 013d7b7c2542+ Fri, 06 Jul 2018 19:26:36 +0100
REM compiler GCC version 7.5.0
REM options -cpp -imultiarch x86_64-linux-gnu -mtune=generic -march=x86-64 -g -O0
REM seed 1182200679 -1994356258 -1058013172 496680528 419672512 1181055335 1825166862 -1320302589 -420388781 -504950176 1891894157 452723620 173352 338850898 -487177803 -1142912152 -391143408 -287791005 -628737607 31379579 -1286863114 -1754500325 -865150861 1792222216 -935486669 -1912557198 -1198265719 1817186783 -1278281181 -236183542 -48174034 -1549728673 -1290034646
REM
REM Al.pp (7ffb3a73ed3dc74a46198e313fe0f926)
REM 
CELL 1.54180   20.00000   20.00000   20.00000   90.00000   90.00000   90.00000
LATT -1
SFAC Al 
Al     1  0.5127125896273  0.4110086589681  0.4845136683755 1.0
Al     1  0.4418036119734  0.5798189027208  0.4625494987711 1.0
Al     1  0.4585314656337  0.4800185880857  0.4109903970236 1.0
Al     1  0.4319006017756  0.4852961619473  0.5188378615718 1.0
Al     1  0.5233299568090  0.5718666624431  0.3880640886149 1.0
Al     1  0.6119215591889  0.4520982757907  0.5206479905131 1.0
Al     1  0.4054335659559  0.3943600267414  0.4619217431873 1.0
Al     1  0.5210850764843  0.4683698624319  0.5819933090028 1.0
Al     1  0.5924288777414  0.5551420964665  0.5650927589997 1.0
Al     1  0.4443972369411  0.3871399588650  0.5683539478383 1.0
Al     1  0.5420809320227  0.6255012877748  0.4881326733831 1.0
Al     1  0.5321269613200  0.5173607967067  0.4825332481216 1.0
Al     1  0.4822476645268  0.5720186210579  0.5663688145972 1.0
END
