TITL Al-27953-9470-5 0.0000000000 8000.0000000000 -38.4786535312 0 0 13 (Cs) n - 1
REM
REM Run started: at Tue 30 Jun 17:39:22 BST 2020 in /home/jrjturnbull/SummerProject/AIRSS/1.02
REM pp3 from code version 0.9.1 bugfix July 2018 build 013d7b7c2542+ Fri, 06 Jul 2018 19:26:36 +0100
REM
REM
REM
REM
REM ./Al.cell (76cc387463606fc40a5500d88fd3c488)
REM AIRSS Version 0.9.1 bugfix July 2018 build 013d7b7c2542+ Fri, 06 Jul 2018 19:26:36 +0100
REM compiler GCC version 7.5.0
REM options -cpp -imultiarch x86_64-linux-gnu -mtune=generic -march=x86-64 -g -O0
REM seed 1658055470 1596617275 895165699 1437968693 1401695175 2043126327 -1665717207 1583644726 -1921144581 797108537 -1341016449 626109527 988050657 298320693 1772341127 1625139924 127946101 -1858683149 -678148579 54025784 1484128404 -1437171061 -814199604 1347270745 -392229645 1623435415 -1365903726 2087065298 -226575786 -1475176987 719486153 -1793582609 -551885875
REM
REM Al.pp (7ffb3a73ed3dc74a46198e313fe0f926)
REM 
CELL 1.54180   20.00000   20.00000   20.00000   90.00000   90.00000   90.00000
LATT -1
SFAC Al 
Al     1  0.5721841698684  0.5625262138500  0.5349464179720 1.0
Al     1  0.5395275558827  0.6212967884266  0.4444361870581 1.0
Al     1  0.5724831706974  0.4525587019566  0.5088988965620 1.0
Al     1  0.5787359723975  0.4830303216593  0.6151525385666 1.0
Al     1  0.4840374260327  0.5032901091456  0.5618664642064 1.0
Al     1  0.4311522064042  0.5890483415448  0.4181891862909 1.0
Al     1  0.5098064029897  0.3985207599094  0.5841908302976 1.0
Al     1  0.4669715585341  0.4211621327223  0.4833448508883 1.0
Al     1  0.4016523344637  0.4303362559707  0.5722644124893 1.0
Al     1  0.4267167467237  0.4765201547864  0.3916701764005 1.0
Al     1  0.3991482133479  0.5110366799381  0.4930387176689 1.0
Al     1  0.6123974679607  0.5317719380187  0.4366404220774 1.0
Al     1  0.5051866746972  0.5189018020716  0.4553608995220 1.0
END
