TITL Al-27953-9470-92 0.0000000000 8000.0000000000 -37.8216211690 0 0 13 (C1) n - 1
REM
REM Run started: at Tue 30 Jun 17:39:30 BST 2020 in /home/jrjturnbull/SummerProject/AIRSS/1.02
REM pp3 from code version 0.9.1 bugfix July 2018 build 013d7b7c2542+ Fri, 06 Jul 2018 19:26:36 +0100
REM
REM
REM
REM
REM ./Al.cell (76cc387463606fc40a5500d88fd3c488)
REM AIRSS Version 0.9.1 bugfix July 2018 build 013d7b7c2542+ Fri, 06 Jul 2018 19:26:36 +0100
REM compiler GCC version 7.5.0
REM options -cpp -imultiarch x86_64-linux-gnu -mtune=generic -march=x86-64 -g -O0
REM seed -1041100483 -431834475 -712499525 -1696910389 -1757428460 1207517225 220715960 -61394725 -605936273 -1915883394 -189001679 -2104239707 -231848618 1773275127 -950931213 -427991163 1778349366 276349288 1426834690 -1877030743 1252256548 1696244478 -2047340072 -699800012 -1047213981 272354272 -233531987 -242362988 445503170 -1083673792 1299018142 -1271915285 -245925931
REM
REM Al.pp (7ffb3a73ed3dc74a46198e313fe0f926)
REM 
CELL 1.54180   20.00000   20.00000   20.00000   90.00000   90.00000   90.00000
LATT -1
SFAC Al 
Al     1  0.4422865986943  0.5325539846788  0.4150876319067 1.0
Al     1  0.4583341480001  0.5117749002074  0.5220763363577 1.0
Al     1  0.5888824312595  0.3891391523534  0.4996427507061 1.0
Al     1  0.5396664197937  0.5631461784334  0.4620537020253 1.0
Al     1  0.5222497572763  0.5897268474066  0.5685163781331 1.0
Al     1  0.4111012100683  0.4339055044614  0.4591351005108 1.0
Al     1  0.4857499827996  0.4066952673397  0.5391109012577 1.0
Al     1  0.4126549826087  0.5854572311435  0.5907700300266 1.0
Al     1  0.5714972784375  0.4024631348945  0.6099979887830 1.0
Al     1  0.5378270661174  0.5226842314782  0.3583087747049 1.0
Al     1  0.4466599177565  0.6170916191881  0.4888435865095 1.0
Al     1  0.5643296045804  0.4894766326493  0.5414324179309 1.0
Al     1  0.5187606026076  0.4558851157657  0.4450243011479 1.0
END
