TITL Al-27953-9470-16 0.0000000000 8000.0000000000 -39.7947213952 0 0 13 (C1) n - 1
REM
REM Run started: at Tue 30 Jun 17:39:23 BST 2020 in /home/jrjturnbull/SummerProject/AIRSS/1.02
REM pp3 from code version 0.9.1 bugfix July 2018 build 013d7b7c2542+ Fri, 06 Jul 2018 19:26:36 +0100
REM
REM
REM
REM
REM ./Al.cell (76cc387463606fc40a5500d88fd3c488)
REM AIRSS Version 0.9.1 bugfix July 2018 build 013d7b7c2542+ Fri, 06 Jul 2018 19:26:36 +0100
REM compiler GCC version 7.5.0
REM options -cpp -imultiarch x86_64-linux-gnu -mtune=generic -march=x86-64 -g -O0
REM seed -991610456 -529163678 486783757 962151209 458088903 1055702480 -1334798998 400774855 1014607418 993371241 -559227470 -2015424801 268448088 -297931514 -755642802 -2010923514 1056252937 957470523 -179392812 851762164 -1577597029 -2090889156 -1355276825 662467701 708565951 -2147091703 131497085 1423163984 269296611 -101196532 474352522 -548394669 -1163048284
REM
REM Al.pp (7ffb3a73ed3dc74a46198e313fe0f926)
REM 
CELL 1.54180   20.00000   20.00000   20.00000   90.00000   90.00000   90.00000
LATT -1
SFAC Al 
Al     1  0.5343734133801  0.5401791445500  0.5271853734237 1.0
Al     1  0.5694364554106  0.5475020079455  0.4227715868930 1.0
Al     1  0.5856269745367  0.4519444047308  0.4830639659256 1.0
Al     1  0.3821567643376  0.5147177474479  0.4319706207156 1.0
Al     1  0.5596256511901  0.6396122290654  0.4857106663974 1.0
Al     1  0.4909794218600  0.5160809559954  0.6257571128872 1.0
Al     1  0.4661074744388  0.5878764270772  0.4530925357075 1.0
Al     1  0.4052356791842  0.4190634057728  0.4885471176745 1.0
Al     1  0.4968108220592  0.4363615708861  0.5490644848869 1.0
Al     1  0.5912498469034  0.4730305324581  0.5937857027910 1.0
Al     1  0.5063827809053  0.3731458278324  0.4592824140090 1.0
Al     1  0.4261607402450  0.5202048246179  0.5336087647816 1.0
Al     1  0.4858538755490  0.4802809216202  0.4461595539069 1.0
END
