TITL Al-27953-9470-90 0.0000000000 8000.0000000000 -41.4427025367 0 0 13 (Cs) n - 1
REM
REM Run started: at Tue 30 Jun 17:39:30 BST 2020 in /home/jrjturnbull/SummerProject/AIRSS/1.02
REM pp3 from code version 0.9.1 bugfix July 2018 build 013d7b7c2542+ Fri, 06 Jul 2018 19:26:36 +0100
REM
REM
REM
REM
REM ./Al.cell (76cc387463606fc40a5500d88fd3c488)
REM AIRSS Version 0.9.1 bugfix July 2018 build 013d7b7c2542+ Fri, 06 Jul 2018 19:26:36 +0100
REM compiler GCC version 7.5.0
REM options -cpp -imultiarch x86_64-linux-gnu -mtune=generic -march=x86-64 -g -O0
REM seed 1388009424 876385988 899994608 -1585920520 -891591865 1084826602 -1132957426 -924481538 -699118262 -741342714 878551548 -1057962224 256380297 500230266 -851311868 -1608412820 2020928793 -1172364152 400330805 -1848734190 -1170048116 -242821048 1811394372 -1167602739 -650914476 -1992267382 25854232 -131827024 1516356031 780761171 -356433616 -422576564 1372051594
REM
REM Al.pp (7ffb3a73ed3dc74a46198e313fe0f926)
REM 
CELL 1.54180   20.00000   20.00000   20.00000   90.00000   90.00000   90.00000
LATT -1
SFAC Al 
Al     1  0.6135540577093  0.4781996456191  0.4968473587454 1.0
Al     1  0.4798219738933  0.5914117789559  0.4388104971478 1.0
Al     1  0.5268196050690  0.4161368149208  0.4606342606079 1.0
Al     1  0.4453041722749  0.4848937434477  0.4255210714316 1.0
Al     1  0.3463896446659  0.4616535777530  0.4709805421587 1.0
Al     1  0.5109589999429  0.5140012687834  0.5075977460542 1.0
Al     1  0.4075326097700  0.5436671759018  0.5152824230321 1.0
Al     1  0.4385354077589  0.4349020402816  0.5274098836340 1.0
Al     1  0.5534387089638  0.5115048639654  0.4069694661292 1.0
Al     1  0.5866850618256  0.5873966753262  0.4839227456447 1.0
Al     1  0.4686498090433  0.5088978902720  0.6069832345329 1.0
Al     1  0.5797793423016  0.5363933293218  0.5878734182601 1.0
Al     1  0.5425306067815  0.4309412954515  0.5711672526215 1.0
END
