TITL Al-27953-9470-38 0.0000000000 8000.0000000000 -39.7683847860 0 0 13 (C1) n - 1
REM
REM Run started: at Tue 30 Jun 17:39:25 BST 2020 in /home/jrjturnbull/SummerProject/AIRSS/1.02
REM pp3 from code version 0.9.1 bugfix July 2018 build 013d7b7c2542+ Fri, 06 Jul 2018 19:26:36 +0100
REM
REM
REM
REM
REM ./Al.cell (76cc387463606fc40a5500d88fd3c488)
REM AIRSS Version 0.9.1 bugfix July 2018 build 013d7b7c2542+ Fri, 06 Jul 2018 19:26:36 +0100
REM compiler GCC version 7.5.0
REM options -cpp -imultiarch x86_64-linux-gnu -mtune=generic -march=x86-64 -g -O0
REM seed 2061808438 1762130923 1626412947 478259179 1942503153 1068410656 682892528 -1373295073 -338322743 -817149910 1113580316 1324562899 1942141462 -1769456285 2147005206 -1021593484 -1359809024 1871768630 1359030794 -1599102036 -1424598706 -1109170592 755302373 55986994 -1533259681 -891698604 240845119 9211821 1944094950 384155912 -1004695701 1225707205 -1493869920
REM
REM Al.pp (7ffb3a73ed3dc74a46198e313fe0f926)
REM 
CELL 1.54180   20.00000   20.00000   20.00000   90.00000   90.00000   90.00000
LATT -1
SFAC Al 
Al     1  0.5605272966904  0.4880866937507  0.5335429807607 1.0
Al     1  0.4607655633992  0.5106588254569  0.5853859710662 1.0
Al     1  0.4783712909645  0.3877818028562  0.4019723657442 1.0
Al     1  0.4793274111249  0.5492685089650  0.4850637437395 1.0
Al     1  0.4678023398375  0.4383375810617  0.5002788826552 1.0
Al     1  0.5844526657106  0.5725926781161  0.4647032282266 1.0
Al     1  0.5122798206111  0.4131506348596  0.5996050903901 1.0
Al     1  0.5418499989664  0.4760737112119  0.4258833121931 1.0
Al     1  0.5561192572629  0.5079718515135  0.6424504769847 1.0
Al     1  0.5391011337816  0.5906859159074  0.5680124114418 1.0
Al     1  0.5070851415701  0.5707641973918  0.3807507772103 1.0
Al     1  0.3802570614258  0.5053617936011  0.5059322697388 1.0
Al     1  0.4320610186552  0.4892658053081  0.4064184898488 1.0
END
