TITL Al-27953-9470-63 0.0000000000 8000.0000000000 -38.1739675260 0 0 13 (C1) n - 1
REM
REM Run started: at Tue 30 Jun 17:39:28 BST 2020 in /home/jrjturnbull/SummerProject/AIRSS/1.02
REM pp3 from code version 0.9.1 bugfix July 2018 build 013d7b7c2542+ Fri, 06 Jul 2018 19:26:36 +0100
REM
REM
REM
REM
REM ./Al.cell (76cc387463606fc40a5500d88fd3c488)
REM AIRSS Version 0.9.1 bugfix July 2018 build 013d7b7c2542+ Fri, 06 Jul 2018 19:26:36 +0100
REM compiler GCC version 7.5.0
REM options -cpp -imultiarch x86_64-linux-gnu -mtune=generic -march=x86-64 -g -O0
REM seed 1194480096 -2087532374 553239910 1681268951 1329055399 -987124825 941028107 298888815 1326048645 1368370856 1120035708 101817958 1769195395 158775359 80008083 1927799129 803136226 1863540386 2070041270 -1686861671 2043216733 915714737 -1060912756 758701310 1111605745 1909915483 750152515 744490429 -2046639902 726425983 1377517262 -344862459 1607309895
REM
REM Al.pp (7ffb3a73ed3dc74a46198e313fe0f926)
REM 
CELL 1.54180   20.00000   20.00000   20.00000   90.00000   90.00000   90.00000
LATT -1
SFAC Al 
Al     1  0.4839871953283  0.4817618811202  0.4095305626053 1.0
Al     1  0.5599468164173  0.4600367236186  0.4903587462372 1.0
Al     1  0.5823580302630  0.5327932702677  0.4089663394028 1.0
Al     1  0.4579943415849  0.4171992005686  0.4933578126381 1.0
Al     1  0.5812948162615  0.6420724146902  0.4324563718599 1.0
Al     1  0.3470191222079  0.4205492934189  0.4941704717298 1.0
Al     1  0.4058522626497  0.4582303162260  0.5819419522095 1.0
Al     1  0.4921209630275  0.5193807947803  0.5509971484203 1.0
Al     1  0.4055316827813  0.5146353284983  0.4829901263059 1.0
Al     1  0.4927180655070  0.5796242011187  0.4584921245907 1.0
Al     1  0.5870913250894  0.5666747551832  0.5146794684190 1.0
Al     1  0.5925762406051  0.4906171728836  0.5938895154805 1.0
Al     1  0.5115092382770  0.4164244476257  0.5881692601012 1.0
END
