TITL Al-27953-9470-26 0.0000000000 8000.0000000000 -40.6682796015 0 0 13 (C1) n - 1
REM
REM Run started: at Tue 30 Jun 17:39:24 BST 2020 in /home/jrjturnbull/SummerProject/AIRSS/1.02
REM pp3 from code version 0.9.1 bugfix July 2018 build 013d7b7c2542+ Fri, 06 Jul 2018 19:26:36 +0100
REM
REM
REM
REM
REM ./Al.cell (76cc387463606fc40a5500d88fd3c488)
REM AIRSS Version 0.9.1 bugfix July 2018 build 013d7b7c2542+ Fri, 06 Jul 2018 19:26:36 +0100
REM compiler GCC version 7.5.0
REM options -cpp -imultiarch x86_64-linux-gnu -mtune=generic -march=x86-64 -g -O0
REM seed 145073725 1243739948 1784600194 -343085711 -1731555806 801820236 -1744605819 994182970 1196691553 -635267671 -789743545 -1699090455 1265699805 93758687 1691844138 -794271506 206295666 724982171 1602822458 1784911636 1414606579 586699216 -1899150575 709982590 1229542437 2084206735 157849518 1626085332 890466724 -1229522015 1678512072 -521831993 -915619161
REM
REM Al.pp (7ffb3a73ed3dc74a46198e313fe0f926)
REM 
CELL 1.54180   20.00000   20.00000   20.00000   90.00000   90.00000   90.00000
LATT -1
SFAC Al 
Al     1  0.4793387999231  0.6063433367441  0.4609947270343 1.0
Al     1  0.4473536712623  0.4377445818877  0.5226507458565 1.0
Al     1  0.5342373834469  0.3961193115109  0.4648252938024 1.0
Al     1  0.5508837167791  0.4633379260802  0.5528486006127 1.0
Al     1  0.5726803145703  0.5682273963401  0.5184131336779 1.0
Al     1  0.4711821334715  0.4643925759972  0.6295555035379 1.0
Al     1  0.6169536230827  0.4765313906032  0.4655429665851 1.0
Al     1  0.4696428973146  0.5430490193238  0.5518737088501 1.0
Al     1  0.5108854757334  0.5022863017068  0.4570689695920 1.0
Al     1  0.5508968046829  0.5454990376358  0.6268405585337 1.0
Al     1  0.4542326898346  0.5398788615626  0.3711643824873 1.0
Al     1  0.4016542276957  0.5232037269730  0.4672982641139 1.0
Al     1  0.4400582622027  0.4333867336346  0.4109230453163 1.0
END
