TITL Al-27953-9470-99 0.0000000000 8000.0000000000 -39.6349832455 0 0 13 (C2) n - 1
REM
REM Run started: at Tue 30 Jun 17:39:31 BST 2020 in /home/jrjturnbull/SummerProject/AIRSS/1.02
REM pp3 from code version 0.9.1 bugfix July 2018 build 013d7b7c2542+ Fri, 06 Jul 2018 19:26:36 +0100
REM
REM
REM
REM
REM ./Al.cell (76cc387463606fc40a5500d88fd3c488)
REM AIRSS Version 0.9.1 bugfix July 2018 build 013d7b7c2542+ Fri, 06 Jul 2018 19:26:36 +0100
REM compiler GCC version 7.5.0
REM options -cpp -imultiarch x86_64-linux-gnu -mtune=generic -march=x86-64 -g -O0
REM seed 1302791434 -58552496 2106586376 908610374 288495103 -536867734 -88071630 1637642925 -470909090 1359213731 48993637 338221571 -317473509 1192464883 473143713 974178841 -1372236103 2134403054 794697565 383691399 -92748943 1070293816 -502046171 1315166737 719466719 -414068847 1758246107 -1297680171 -96958717 -151448691 -1893441231 1591679336 -1379519999
REM
REM Al.pp (7ffb3a73ed3dc74a46198e313fe0f926)
REM 
CELL 1.54180   20.00000   20.00000   20.00000   90.00000   90.00000   90.00000
LATT -1
SFAC Al 
Al     1  0.4978285387767  0.4629747272369  0.4744724670378 1.0
Al     1  0.4373527244227  0.6061843485097  0.4138730289333 1.0
Al     1  0.5170856615909  0.5708393274835  0.4827337576575 1.0
Al     1  0.4116015002800  0.5649487554108  0.5144460304882 1.0
Al     1  0.5889790068689  0.4227641985564  0.5212380367432 1.0
Al     1  0.5939289234404  0.5293499477429  0.5505693591939 1.0
Al     1  0.5060828893230  0.5241957027166  0.3818494848230 1.0
Al     1  0.4876684393411  0.5102223888495  0.5731552378342 1.0
Al     1  0.5660682116083  0.4521453481378  0.6263430817059 1.0
Al     1  0.5966827487481  0.5025526195985  0.4429204814889 1.0
Al     1  0.4008479595638  0.4553438479847  0.5280507071641 1.0
Al     1  0.4894032659725  0.3988392580879  0.5650860187174 1.0
Al     1  0.4064701300636  0.4996396296848  0.4252623082128 1.0
END
