TITL Al-27953-9470-80 0.0000000000 8000.0000000000 -39.0874438667 0 0 13 (C1) n - 1
REM
REM Run started: at Tue 30 Jun 17:39:29 BST 2020 in /home/jrjturnbull/SummerProject/AIRSS/1.02
REM pp3 from code version 0.9.1 bugfix July 2018 build 013d7b7c2542+ Fri, 06 Jul 2018 19:26:36 +0100
REM
REM
REM
REM
REM ./Al.cell (76cc387463606fc40a5500d88fd3c488)
REM AIRSS Version 0.9.1 bugfix July 2018 build 013d7b7c2542+ Fri, 06 Jul 2018 19:26:36 +0100
REM compiler GCC version 7.5.0
REM options -cpp -imultiarch x86_64-linux-gnu -mtune=generic -march=x86-64 -g -O0
REM seed -428544279 -1070685298 1453500373 -418421937 579888342 521328768 -819625657 467597803 -1119568176 1625232943 -1141470417 252372444 -578206727 1939978336 -1897283504 1775937137 1238719228 -1429263473 -356283015 -512161087 283584057 -171651974 1307290317 2128890995 1418638676 1099010491 1484668528 -1340580068 1731269480 1288660204 214821941 -976685295 -381852576
REM
REM Al.pp (7ffb3a73ed3dc74a46198e313fe0f926)
REM 
CELL 1.54180   20.00000   20.00000   20.00000   90.00000   90.00000   90.00000
LATT -1
SFAC Al 
Al     1  0.5511359477954  0.3829522950649  0.5801083602380 1.0
Al     1  0.5154073860332  0.5386725608867  0.3550757469491 1.0
Al     1  0.5644042727033  0.4792815091472  0.6399684032105 1.0
Al     1  0.4452675190137  0.4652264288977  0.4037911248619 1.0
Al     1  0.5557563477887  0.4809064934950  0.5300157161840 1.0
Al     1  0.4299053342248  0.5749959400809  0.4150775012206 1.0
Al     1  0.4830470295272  0.4064996447113  0.4928775723093 1.0
Al     1  0.4501409293600  0.6224075435966  0.5130163135196 1.0
Al     1  0.5532326825876  0.4604904955687  0.4235452016047 1.0
Al     1  0.4666228889510  0.4534751075174  0.5947386242992 1.0
Al     1  0.5056523494744  0.5597210700038  0.5851276311857 1.0
Al     1  0.4473280689302  0.5105350303352  0.5039226973178 1.0
Al     1  0.5320992436105  0.5648357806945  0.4627350070998 1.0
END
