TITL Al-3151-3042-122 0.0000000000 102538.4621452238 -40.7085165600 0 0 13 (C2) n - 1
REM
REM Run started: at Wed 1 Jul 11:39:18 BST 2020 in /home/jrjturnbull/SummerProject/AIRSS/1_LJ/3
REM pp3 from code version 0.9.1 bugfix July 2018 build 013d7b7c2542+ Fri, 06 Jul 2018 19:26:36 +0100
REM
REM
REM
REM
REM ./Al.cell (d0a95b329046b05477db976886f073f8)
REM AIRSS Version 0.9.1 bugfix July 2018 build 013d7b7c2542+ Fri, 06 Jul 2018 19:26:36 +0100
REM compiler GCC version 7.5.0
REM options -cpp -imultiarch x86_64-linux-gnu -mtune=generic -march=x86-64 -g -O0
REM seed 799284205 439035736 1225353548 737507095 974230458 1697195682 1305702540 -1593234939 1311527217 -495116405 -1298747865 -1307299519 -452801677 1230309985 -1635406635 -1436983321 -908698032 1659760679 1560584502 -1562807320 1740841773 -924704253 1994489003 -327414402 -607845861 -318530024 -1672480938 912299736 1842907138 411331999 -1449662695 1195968144 -1269570831
REM
REM Al.pp (3b69e4bd14b647c3cd091ae36dc80706)
REM 
CELL 1.54180   68.29218   51.17931   54.97930   49.86615   44.45956   59.67500
LATT -1
SFAC Al 
Al     1  0.5576516857892  0.4765899329665  0.4731537191636 1.0
Al     1  0.4833098328401  0.4471608254530  0.5518146814313 1.0
Al     1  0.5256351952696  0.5190147724008  0.4850380901671 1.0
Al     1  0.5449670676166  0.5172430417128  0.4317263576540 1.0
Al     1  0.4430757367148  0.4822825964120  0.5675457226115 1.0
Al     1  0.4742152373034  0.4894414953414  0.5065936896816 1.0
Al     1  0.5167219223915  0.4778861727758  0.4901481094112 1.0
Al     1  0.5123889105067  0.5004548407221  0.4438171221569 1.0
Al     1  0.4540937014569  0.5358597890909  0.5157235507939 1.0
Al     1  0.5182502188273  0.4646359179277  0.5354705631161 1.0
Al     1  0.4836574234416  0.5006661797180  0.5310763360292 1.0
Al     1  0.4994217949875  0.5326909189419  0.4676493499810 1.0
Al     1  0.4866112728546  0.5560735165372  0.5002429078026 1.0
END
