TITL Al-3151-3042-19 0.0000000000 100565.3321240774 -37.9659852485 0 0 12 (C5v) n - 1
REM
REM Run started: at Wed 1 Jul 11:39:03 BST 2020 in /home/jrjturnbull/SummerProject/AIRSS/1_LJ/3
REM pp3 from code version 0.9.1 bugfix July 2018 build 013d7b7c2542+ Fri, 06 Jul 2018 19:26:36 +0100
REM
REM
REM
REM
REM ./Al.cell (d0a95b329046b05477db976886f073f8)
REM AIRSS Version 0.9.1 bugfix July 2018 build 013d7b7c2542+ Fri, 06 Jul 2018 19:26:36 +0100
REM compiler GCC version 7.5.0
REM options -cpp -imultiarch x86_64-linux-gnu -mtune=generic -march=x86-64 -g -O0
REM seed -2017327578 -36615113 900108507 268776666 -564834972 1364231005 1342906004 -875230955 -1093424147 -1664072703 1452429796 -110819916 -1197918807 1198563006 1416173481 -1128363047 -1953861544 -1666276870 2069126976 -1141369358 1382702871 -422605154 1897673109 1244186062 1723862700 -695204648 -203312675 633703000 2034230476 2091718768 -1640569904 1751178715 -1778778068
REM
REM Al.pp (3b69e4bd14b647c3cd091ae36dc80706)
REM 
CELL 1.54180   43.70844   54.07373   83.03968  139.76241   52.49503  118.09490
LATT -1
SFAC Al 
Al     1  0.5499243505905  0.4789396505413  0.4583012429757 1.0
Al     1  0.4657151351627  0.4503073730675  0.4970006491465 1.0
Al     1  0.4504193321921  0.5128732003459  0.5352154578518 1.0
Al     1  0.4993232525481  0.4940016601117  0.4957237586546 1.0
Al     1  0.4676489880938  0.5438210713577  0.5221747006441 1.0
Al     1  0.5047097695508  0.4907369435279  0.5185542337524 1.0
Al     1  0.5554927616117  0.5080038504963  0.4952162697432 1.0
Al     1  0.4422414803075  0.4839299362985  0.4992937924907 1.0
Al     1  0.4942856388132  0.5016256586970  0.4753762445003 1.0
Al     1  0.5322668106710  0.4472232142211  0.4716658659117 1.0
Al     1  0.5325879386919  0.5408116432965  0.4974538399588 1.0
Al     1  0.5053845417667  0.5477257980386  0.5340238443703 1.0
END
