TITL Al-3151-3042-29 0.0000000000 125100.3686008641 -52.3200885041 0 0 15 (C2v) n - 1
REM
REM Run started: at Wed 1 Jul 11:39:04 BST 2020 in /home/jrjturnbull/SummerProject/AIRSS/1_LJ/3
REM pp3 from code version 0.9.1 bugfix July 2018 build 013d7b7c2542+ Fri, 06 Jul 2018 19:26:36 +0100
REM
REM
REM
REM
REM ./Al.cell (d0a95b329046b05477db976886f073f8)
REM AIRSS Version 0.9.1 bugfix July 2018 build 013d7b7c2542+ Fri, 06 Jul 2018 19:26:36 +0100
REM compiler GCC version 7.5.0
REM options -cpp -imultiarch x86_64-linux-gnu -mtune=generic -march=x86-64 -g -O0
REM seed 1774904734 1755312535 877356446 -458426841 1246844180 -1771918107 -1296538801 1018283999 2136064434 673292723 1933610330 -842169140 -634626893 171928305 -1208839615 -242910230 -848110630 -608374614 -671740222 463633513 -1754610212 -233500051 2030449991 932038673 -597454172 275071918 524363287 -781417553 -731041857 1081040559 689481955 526468386 164427379
REM
REM Al.pp (3b69e4bd14b647c3cd091ae36dc80706)
REM 
CELL 1.54180   46.17338   38.91107   75.39460   70.77097   85.67496   99.10896
LATT -1
SFAC Al 
Al     1  0.5043541524138  0.5787564989303  0.4713906817255 1.0
Al     1  0.4721187882085  0.4427223089897  0.5230643653719 1.0
Al     1  0.4734542525004  0.4572493171440  0.4913126870863 1.0
Al     1  0.4848936096561  0.4957751283986  0.5293192124033 1.0
Al     1  0.5332247848887  0.5376742633208  0.4834697270997 1.0
Al     1  0.5325736839499  0.5222961801271  0.5154637659762 1.0
Al     1  0.4570557067368  0.4953067826823  0.5056038590875 1.0
Al     1  0.5029344646255  0.4900425307301  0.5032988473927 1.0
Al     1  0.5118643662765  0.4359079436295  0.5055887328103 1.0
Al     1  0.5189143587695  0.4596511163215  0.5290119015661 1.0
Al     1  0.4870650748605  0.5191332151663  0.4774090629128 1.0
Al     1  0.4569906500605  0.5524115390867  0.4851541572623 1.0
Al     1  0.5490328525716  0.4855041732516  0.5007137528768 1.0
Al     1  0.5211343284134  0.4837703861622  0.4774572336485 1.0
Al     1  0.4943889260682  0.5437986160595  0.5017420127802 1.0
END
