TITL Al-3151-3042-132 0.0000000000 88009.4135878231 -31.7942174113 0 0 11 (C1) n - 1
REM
REM Run started: at Wed 1 Jul 11:39:19 BST 2020 in /home/jrjturnbull/SummerProject/AIRSS/1_LJ/3
REM pp3 from code version 0.9.1 bugfix July 2018 build 013d7b7c2542+ Fri, 06 Jul 2018 19:26:36 +0100
REM
REM
REM
REM
REM ./Al.cell (d0a95b329046b05477db976886f073f8)
REM AIRSS Version 0.9.1 bugfix July 2018 build 013d7b7c2542+ Fri, 06 Jul 2018 19:26:36 +0100
REM compiler GCC version 7.5.0
REM options -cpp -imultiarch x86_64-linux-gnu -mtune=generic -march=x86-64 -g -O0
REM seed -962016764 490683895 -30909021 -597443795 -1257818080 802868239 321119573 -629846354 -1011835837 1433045064 517488477 1190475688 -1153077458 1578489914 -1230492472 -192468229 1377100010 1933432024 2041542437 1288801992 1184616899 698343062 810724117 -1088303165 2052965964 -1891537649 -1091289013 807962425 -1223351297 -858738112 197772096 806398259 633167061
REM
REM Al.pp (3b69e4bd14b647c3cd091ae36dc80706)
REM 
CELL 1.54180   39.70400   49.66217   52.46916   83.55367  120.35808   87.09751
LATT -1
SFAC Al 
Al     1  0.4501430481865  0.4803076951574  0.4926385745640 1.0
Al     1  0.5133019391836  0.4995488545727  0.4596423415604 1.0
Al     1  0.5119189238881  0.4815235914838  0.5285417265895 1.0
Al     1  0.5281683032157  0.5234661910283  0.5275679488498 1.0
Al     1  0.5277886650067  0.5357158243694  0.4849693787642 1.0
Al     1  0.5486429077090  0.4925483424468  0.5092319893320 1.0
Al     1  0.4897849747132  0.4414302719194  0.5188469774756 1.0
Al     1  0.4670227667967  0.5170878429699  0.5168381806299 1.0
Al     1  0.4843386884336  0.5097343977366  0.4843133737639 1.0
Al     1  0.5008508788202  0.4664371328719  0.4863376304076 1.0
Al     1  0.4780388040468  0.5521998554438  0.4910717780632 1.0
END
