TITL Al-3151-3042-6 0.0000000000 79909.0978395226 -27.4457294158 0 0 10 (Cs) n - 1
REM
REM Run started: at Wed 1 Jul 11:39:01 BST 2020 in /home/jrjturnbull/SummerProject/AIRSS/1_LJ/3
REM pp3 from code version 0.9.1 bugfix July 2018 build 013d7b7c2542+ Fri, 06 Jul 2018 19:26:36 +0100
REM
REM
REM
REM
REM ./Al.cell (d0a95b329046b05477db976886f073f8)
REM AIRSS Version 0.9.1 bugfix July 2018 build 013d7b7c2542+ Fri, 06 Jul 2018 19:26:36 +0100
REM compiler GCC version 7.5.0
REM options -cpp -imultiarch x86_64-linux-gnu -mtune=generic -march=x86-64 -g -O0
REM seed -98773122 -1702592986 -1006454810 -2073779843 344662966 -2015476820 -1871548607 1817541481 -950422423 657753917 -1601400256 -888840078 26455170 1063451617 -1441587386 -1197664075 -143237291 465318096 1524814280 -1637386872 -2104592372 -1789450468 -987475917 -631215207 240632844 640080591 -1140162463 -1250002262 59055252 -355218778 1022535375 -573696074 660451090
REM
REM Al.pp (3b69e4bd14b647c3cd091ae36dc80706)
REM 
CELL 1.54180   73.13500   28.16509   44.03819   77.75852  113.00245   84.29690
LATT -1
SFAC Al 
Al     1  0.4817513889203  0.5669206993925  0.5159344834541 1.0
Al     1  0.5154641339560  0.5626589516951  0.5322849915475 1.0
Al     1  0.4974373137316  0.5348924100714  0.4886608175660 1.0
Al     1  0.4808147255695  0.4919970715102  0.4540374712915 1.0
Al     1  0.5280906446026  0.4915188083800  0.5251510094061 1.0
Al     1  0.5029700864553  0.4507645131409  0.5073328775240 1.0
Al     1  0.5035018465997  0.4946569515785  0.5434553377747 1.0
Al     1  0.4742105068280  0.4983299894879  0.4990194220560 1.0
Al     1  0.5012081362462  0.4205283738703  0.4637241432722 1.0
Al     1  0.5145511170906  0.4877323308732  0.4703994461079 1.0
END
