TITL Al-3151-3042-88 0.0000000000 114853.1382369599 -49.1995456839 0 0 15 (Cs) n - 1
REM
REM Run started: at Wed 1 Jul 11:39:13 BST 2020 in /home/jrjturnbull/SummerProject/AIRSS/1_LJ/3
REM pp3 from code version 0.9.1 bugfix July 2018 build 013d7b7c2542+ Fri, 06 Jul 2018 19:26:36 +0100
REM
REM
REM
REM
REM ./Al.cell (d0a95b329046b05477db976886f073f8)
REM AIRSS Version 0.9.1 bugfix July 2018 build 013d7b7c2542+ Fri, 06 Jul 2018 19:26:36 +0100
REM compiler GCC version 7.5.0
REM options -cpp -imultiarch x86_64-linux-gnu -mtune=generic -march=x86-64 -g -O0
REM seed -1417801597 649346301 393607233 -283618419 -781878489 1794675487 -2074598750 -171460527 -710389283 -942947936 -1554369976 940040588 1580604291 1701136418 -501557372 -486347395 -2050549831 1786466885 -1240925452 25507689 -507497106 -596871947 -1726752878 640731736 -1814967527 1994517150 1551545504 -155039931 1451078324 -973631261 -678465569 1083781998 -96047590
REM
REM Al.pp (3b69e4bd14b647c3cd091ae36dc80706)
REM 
CELL 1.54180   32.14541  103.40352   41.61685   88.74702  123.27331   96.23063
LATT -1
SFAC Al 
Al     1  0.5541977947162  0.5157972849355  0.4944094175111 1.0
Al     1  0.5474052878644  0.4954303849454  0.5823937952746 1.0
Al     1  0.4327125489999  0.5138636544531  0.4852004399103 1.0
Al     1  0.5399399860648  0.4943089269410  0.4770649739472 1.0
Al     1  0.4931172017833  0.4842118778734  0.4968459821820 1.0
Al     1  0.4185099508784  0.4916961975327  0.4680580630858 1.0
Al     1  0.4955447871146  0.5088801230049  0.4330394451475 1.0
Al     1  0.4840095754748  0.5041573815146  0.4786184322551 1.0
Al     1  0.5527800247663  0.5006773489137  0.5329660075573 1.0
Al     1  0.4787209408896  0.4993624412633  0.5275202783030 1.0
Al     1  0.4564389757317  0.4888941077596  0.4346463560387 1.0
Al     1  0.4807957338144  0.5244019070555  0.4644652761176 1.0
Al     1  0.5167942890618  0.5186673040130  0.5263816248499 1.0
Al     1  0.5615856062297  0.4805071012425  0.5521796151899 1.0
Al     1  0.4874471966103  0.4791437585519  0.5462102926299 1.0
END
