TITL Al-3151-3042-66 0.0000000000 80757.9540367891 -26.5206436113 0 0 10 (C1) n - 1
REM
REM Run started: at Wed 1 Jul 11:39:10 BST 2020 in /home/jrjturnbull/SummerProject/AIRSS/1_LJ/3
REM pp3 from code version 0.9.1 bugfix July 2018 build 013d7b7c2542+ Fri, 06 Jul 2018 19:26:36 +0100
REM
REM
REM
REM
REM ./Al.cell (d0a95b329046b05477db976886f073f8)
REM AIRSS Version 0.9.1 bugfix July 2018 build 013d7b7c2542+ Fri, 06 Jul 2018 19:26:36 +0100
REM compiler GCC version 7.5.0
REM options -cpp -imultiarch x86_64-linux-gnu -mtune=generic -march=x86-64 -g -O0
REM seed 254384294 667548306 1464927306 1276170517 -441379480 111386509 -813398169 1254505580 62322319 -1631019688 -1119241144 1173637484 -1379612246 -440742817 -546217724 480401368 929676716 9930286 283446829 -1185463616 -1877218624 1028651288 55389045 722763969 999027656 897568761 -1334794880 -839635035 -211682240 -488511411 -880630539 239473432 -1334428122
REM
REM Al.pp (3b69e4bd14b647c3cd091ae36dc80706)
REM 
CELL 1.54180   75.62930   31.24976   46.84713   55.24041   75.90006  100.47668
LATT -1
SFAC Al 
Al     1  0.4808596345292  0.3927404972612  0.5492155682599 1.0
Al     1  0.5103941722290  0.4351208483478  0.5437007247788 1.0
Al     1  0.5021711422319  0.5674621853510  0.5094202743638 1.0
Al     1  0.4889753147501  0.4765099873620  0.5357166825336 1.0
Al     1  0.5255403794473  0.6172138376754  0.4492842593123 1.0
Al     1  0.5047780860759  0.4687568431971  0.4916802628674 1.0
Al     1  0.4732334019275  0.4606305571057  0.5061928152496 1.0
Al     1  0.4980849763048  0.5448713594349  0.4733690378920 1.0
Al     1  0.5213951649248  0.5290166300971  0.4961592646052 1.0
Al     1  0.4945677275795  0.5076772541681  0.4452611101374 1.0
END
