TITL Al-3151-3042-142 0.0000000000 90254.3629405091 -31.9133338447 0 0 11 (C2) n - 1
REM
REM Run started: at Wed 1 Jul 11:39:21 BST 2020 in /home/jrjturnbull/SummerProject/AIRSS/1_LJ/3
REM pp3 from code version 0.9.1 bugfix July 2018 build 013d7b7c2542+ Fri, 06 Jul 2018 19:26:36 +0100
REM
REM
REM
REM
REM ./Al.cell (d0a95b329046b05477db976886f073f8)
REM AIRSS Version 0.9.1 bugfix July 2018 build 013d7b7c2542+ Fri, 06 Jul 2018 19:26:36 +0100
REM compiler GCC version 7.5.0
REM options -cpp -imultiarch x86_64-linux-gnu -mtune=generic -march=x86-64 -g -O0
REM seed 1360310514 2031998087 659351362 120461542 -818948591 -1370466355 -1261029328 -761886444 714256977 -365004702 -1944124148 746863974 -917092071 -148650296 577608823 -1551415756 1576376273 877949862 -400271422 2100618614 1927269862 -321150094 142624926 825622454 -2131271516 -1415960674 -1853028133 422970848 1311588001 -1727054865 -1756740953 573138228 -1558192769
REM
REM Al.pp (3b69e4bd14b647c3cd091ae36dc80706)
REM 
CELL 1.54180   31.29007   49.50796   59.38312   88.55453   97.50663   82.12127
LATT -1
SFAC Al 
Al     1  0.5121639325178  0.5473191171927  0.5020776849859 1.0
Al     1  0.5069785839451  0.5300905273461  0.5369925317783 1.0
Al     1  0.5043731327809  0.4746040536620  0.4982702940679 1.0
Al     1  0.5045821186158  0.4741617267174  0.4609463088702 1.0
Al     1  0.4402084876371  0.4780073961542  0.5106601288147 1.0
Al     1  0.5001420191350  0.4856401321848  0.5340257332946 1.0
Al     1  0.5432842621208  0.5051724574168  0.5130977446898 1.0
Al     1  0.5647949233737  0.4809879790469  0.4842014171981 1.0
Al     1  0.4694403704815  0.5157639827325  0.5063984390360 1.0
Al     1  0.5077707499058  0.5136066352134  0.4777997161550 1.0
Al     1  0.4462614194864  0.4946458923333  0.4755299011095 1.0
END
