TITL Al-3151-3042-179 0.0000000000 129427.9459735439 -56.8128511748 0 0 16 (Cs) n - 1
REM
REM Run started: at Wed 1 Jul 11:39:27 BST 2020 in /home/jrjturnbull/SummerProject/AIRSS/1_LJ/3
REM pp3 from code version 0.9.1 bugfix July 2018 build 013d7b7c2542+ Fri, 06 Jul 2018 19:26:36 +0100
REM
REM
REM
REM
REM ./Al.cell (d0a95b329046b05477db976886f073f8)
REM AIRSS Version 0.9.1 bugfix July 2018 build 013d7b7c2542+ Fri, 06 Jul 2018 19:26:36 +0100
REM compiler GCC version 7.5.0
REM options -cpp -imultiarch x86_64-linux-gnu -mtune=generic -march=x86-64 -g -O0
REM seed 1474168707 -1860294761 18630912 2146310759 -1023814592 1024450777 -1149689213 1045352779 1593134623 622314425 244534709 1162522886 -1812410660 1329326269 -1520450653 -65144560 1844257769 1560090849 -1040783244 -993708320 -583113668 384211565 -1451788211 540996856 60932034 2070280016 -1434602276 -1021201524 -596128597 -911771374 -219459643 1341758054 -1847347046
REM
REM Al.pp (3b69e4bd14b647c3cd091ae36dc80706)
REM 
CELL 1.54180   92.17892   35.72088   62.20524   86.66560   41.48300   98.70453
LATT -1
SFAC Al 
Al     1  0.5455713890314  0.5341738483159  0.4710508056472 1.0
Al     1  0.4837000494726  0.4709506827393  0.5488669857730 1.0
Al     1  0.4943950234443  0.4854469234249  0.5035158973081 1.0
Al     1  0.4961527895200  0.5789229864749  0.5166399835304 1.0
Al     1  0.5166476780783  0.4544850860859  0.4660541379958 1.0
Al     1  0.5199239009596  0.4741168992558  0.4966634658933 1.0
Al     1  0.5045497754901  0.4985598313145  0.4585599946052 1.0
Al     1  0.5087126838476  0.5281631589257  0.5106668844740 1.0
Al     1  0.5319366217926  0.5782671220705  0.4664144925346 1.0
Al     1  0.4692043150044  0.4974456186947  0.5098211362798 1.0
Al     1  0.4590519440454  0.4518888671210  0.5491220434126 1.0
Al     1  0.4885522987949  0.4251759431209  0.5219076540621 1.0
Al     1  0.5294765209985  0.5191680061367  0.4575916030992 1.0
Al     1  0.4724250852690  0.5171276398569  0.5404816215942 1.0
Al     1  0.5005689209597  0.5453441828109  0.4842591700064 1.0
Al     1  0.4791310032914  0.4407632036513  0.4983842237840 1.0
END
