TITL Al-3151-3042-24 0.0000000000 61244.7095454846 -19.7646035484 0 0 8 (D2d) n - 1
REM
REM Run started: at Wed 1 Jul 11:39:04 BST 2020 in /home/jrjturnbull/SummerProject/AIRSS/1_LJ/3
REM pp3 from code version 0.9.1 bugfix July 2018 build 013d7b7c2542+ Fri, 06 Jul 2018 19:26:36 +0100
REM
REM
REM
REM
REM ./Al.cell (d0a95b329046b05477db976886f073f8)
REM AIRSS Version 0.9.1 bugfix July 2018 build 013d7b7c2542+ Fri, 06 Jul 2018 19:26:36 +0100
REM compiler GCC version 7.5.0
REM options -cpp -imultiarch x86_64-linux-gnu -mtune=generic -march=x86-64 -g -O0
REM seed -229908839 -388055434 413740523 298996521 -907153678 1304983776 1910287601 -1833354610 -1864534001 1341643237 -74294010 -345512461 49386515 -704456842 -1326249134 -288395070 76390617 -434527330 -1855356918 171625913 1520105184 415790076 -1171879280 1775785301 1647625157 -1467403853 -70319736 2041823153 -2094060372 -2020686694 715351753 1892196385 1583303439
REM
REM Al.pp (3b69e4bd14b647c3cd091ae36dc80706)
REM 
CELL 1.54180   61.03909   56.06744   26.64892   87.23140  112.56942   52.14144
LATT -1
SFAC Al 
Al     1  0.5136518725738  0.4695998128093  0.5428171998102 1.0
Al     1  0.4854951612270  0.4956681451655  0.4458813120973 1.0
Al     1  0.5081855099120  0.5144917061073  0.4411672164255 1.0
Al     1  0.5395845536644  0.4616562901446  0.4955212244882 1.0
Al     1  0.5270587067711  0.4980636097421  0.5374805734626 1.0
Al     1  0.4924864707049  0.5128695543262  0.5677358573828 1.0
Al     1  0.4597435058666  0.5109824543373  0.4955757147394 1.0
Al     1  0.4737943192801  0.5366684273675  0.4738209015939 1.0
END
