TITL Al-3151-3042-42 0.0000000000 125546.7172674581 -48.6194183137 0 0 15 (C1) n - 1
REM
REM Run started: at Wed 1 Jul 11:39:06 BST 2020 in /home/jrjturnbull/SummerProject/AIRSS/1_LJ/3
REM pp3 from code version 0.9.1 bugfix July 2018 build 013d7b7c2542+ Fri, 06 Jul 2018 19:26:36 +0100
REM
REM
REM
REM
REM ./Al.cell (d0a95b329046b05477db976886f073f8)
REM AIRSS Version 0.9.1 bugfix July 2018 build 013d7b7c2542+ Fri, 06 Jul 2018 19:26:36 +0100
REM compiler GCC version 7.5.0
REM options -cpp -imultiarch x86_64-linux-gnu -mtune=generic -march=x86-64 -g -O0
REM seed 1288064589 -1767944422 1984280686 1448076235 -1606063631 1874671952 1236317795 809681894 1852281407 -2133780303 678819627 -1790846891 352001615 -1013809228 1310132123 1329562387 -1899955695 1054378670 -1306610940 137315223 -1225771944 -1894546269 1199694572 1703411147 -588426774 -1131453859 1826049966 750497251 3515878 191339289 2089821468 -213256744 1406092579
REM
REM Al.pp (3b69e4bd14b647c3cd091ae36dc80706)
REM 
CELL 1.54180   85.35716   79.83311   36.04333  127.84075  120.97500   40.55547
LATT -1
SFAC Al 
Al     1  0.4553041961458  0.5135822532982  0.4814874951867 1.0
Al     1  0.5273782362249  0.4652305391721  0.4533271837547 1.0
Al     1  0.4939025995957  0.4909204522950  0.4106599847930 1.0
Al     1  0.4778871340367  0.5252081251393  0.5279304882301 1.0
Al     1  0.4908234194963  0.4861404717210  0.4599068972330 1.0
Al     1  0.4626601952421  0.5276437553074  0.4575981133851 1.0
Al     1  0.4788209031129  0.5348612657914  0.4416969660912 1.0
Al     1  0.5167243990207  0.4858850063617  0.5227505348452 1.0
Al     1  0.5009400565403  0.5124206307553  0.5887382072335 1.0
Al     1  0.5388647421907  0.4927217550844  0.5876489675387 1.0
Al     1  0.5003518281163  0.5118706076708  0.4871476572790 1.0
Al     1  0.4899853051028  0.4872148756251  0.5219899376487 1.0
Al     1  0.5065420124104  0.5279864339629  0.5649873177529 1.0
Al     1  0.5382746712092  0.4904469973678  0.5203298741566 1.0
Al     1  0.5215404015549  0.4478668304475  0.4738004748713 1.0
END
