TITL Al-3151-3042-136 0.0000000000 73234.5530221858 -23.1698755192 0 0 9 (C2) n - 1
REM
REM Run started: at Wed 1 Jul 11:39:20 BST 2020 in /home/jrjturnbull/SummerProject/AIRSS/1_LJ/3
REM pp3 from code version 0.9.1 bugfix July 2018 build 013d7b7c2542+ Fri, 06 Jul 2018 19:26:36 +0100
REM
REM
REM
REM
REM ./Al.cell (d0a95b329046b05477db976886f073f8)
REM AIRSS Version 0.9.1 bugfix July 2018 build 013d7b7c2542+ Fri, 06 Jul 2018 19:26:36 +0100
REM compiler GCC version 7.5.0
REM options -cpp -imultiarch x86_64-linux-gnu -mtune=generic -march=x86-64 -g -O0
REM seed -2017279252 -572306650 -856444740 -809097044 -1124043010 -1072372799 -84059153 373049284 -597103597 -1554686878 -1260738430 -547603565 -1760074665 -1987115003 -1616411543 -2052958222 2081558337 783244372 1487336344 -577789976 -1530338866 389266943 -2099082147 337061950 1138021065 -1450879006 418525876 1000024970 -755228407 -337928003 -1094651911 270086720 -1347678189
REM
REM Al.pp (3b69e4bd14b647c3cd091ae36dc80706)
REM 
CELL 1.54180   21.38448   50.80556   83.23818  116.29279  115.32180   77.26668
LATT -1
SFAC Al 
Al     1  0.4743110998795  0.4970628099850  0.4833271872421 1.0
Al     1  0.4793889207112  0.5099305045677  0.5306747636090 1.0
Al     1  0.4227218265978  0.5201950262478  0.5043586216046 1.0
Al     1  0.5701206432585  0.4729792233814  0.4961285568178 1.0
Al     1  0.5770580439586  0.5156015660978  0.4950187273990 1.0
Al     1  0.5383720966019  0.5150328081147  0.5158098215588 1.0
Al     1  0.4768110234934  0.4482987321739  0.4723054769250 1.0
Al     1  0.4866706886931  0.5451735957431  0.5006449720560 1.0
Al     1  0.4745456568059  0.4757256336886  0.5017318727877 1.0
END
