TITL Al-3151-3042-126 0.0000000000 66974.8684077636 -19.8207967002 0 0 8 (Cs) n - 1
REM
REM Run started: at Wed 1 Jul 11:39:19 BST 2020 in /home/jrjturnbull/SummerProject/AIRSS/1_LJ/3
REM pp3 from code version 0.9.1 bugfix July 2018 build 013d7b7c2542+ Fri, 06 Jul 2018 19:26:36 +0100
REM
REM
REM
REM
REM ./Al.cell (d0a95b329046b05477db976886f073f8)
REM AIRSS Version 0.9.1 bugfix July 2018 build 013d7b7c2542+ Fri, 06 Jul 2018 19:26:36 +0100
REM compiler GCC version 7.5.0
REM options -cpp -imultiarch x86_64-linux-gnu -mtune=generic -march=x86-64 -g -O0
REM seed -2083550442 -1450496936 1387277644 -1605361668 -1563762479 1732821654 1212234587 -272773231 1839063275 2038028365 1905988496 2079566206 1912373633 -667814751 718450143 1251754850 93031763 -1565141130 196596348 1659244959 2066169615 -1392887293 1595717623 -1270069320 2107882520 1775936053 -1231539238 718327937 1208183237 -80117380 1363550406 -621898352 -200056951
REM
REM Al.pp (3b69e4bd14b647c3cd091ae36dc80706)
REM 
CELL 1.54180   72.43809   42.13734   34.28348   55.59655   96.55593  125.21322
LATT -1
SFAC Al 
Al     1  0.5056046318226  0.5622629590673  0.4414965222996 1.0
Al     1  0.5145935604194  0.5117632899815  0.4830807707410 1.0
Al     1  0.4957143253029  0.4503615340484  0.4781490552426 1.0
Al     1  0.4821801209972  0.4370350440140  0.5453450230748 1.0
Al     1  0.4788516983712  0.4832131018993  0.4717609079628 1.0
Al     1  0.5253374414191  0.5651417909892  0.4965932470633 1.0
Al     1  0.4867324921826  0.5026169876617  0.5231119903384 1.0
Al     1  0.5109858294851  0.4876052923386  0.5604624832775 1.0
END
