TITL Al-3151-3042-35 0.0000000000 129917.1658302967 -54.6115968380 0 0 16 (C1) n - 1
REM
REM Run started: at Wed 1 Jul 11:39:05 BST 2020 in /home/jrjturnbull/SummerProject/AIRSS/1_LJ/3
REM pp3 from code version 0.9.1 bugfix July 2018 build 013d7b7c2542+ Fri, 06 Jul 2018 19:26:36 +0100
REM
REM
REM
REM
REM ./Al.cell (d0a95b329046b05477db976886f073f8)
REM AIRSS Version 0.9.1 bugfix July 2018 build 013d7b7c2542+ Fri, 06 Jul 2018 19:26:36 +0100
REM compiler GCC version 7.5.0
REM options -cpp -imultiarch x86_64-linux-gnu -mtune=generic -march=x86-64 -g -O0
REM seed -1445054374 2142740088 -1064384976 -2111325217 1081260044 1899404678 465393529 2023890518 -2099043332 852223664 147901450 1294693534 -222160912 -519093947 1492628877 -1146166016 604728090 -272619028 1807981324 -560068842 783320345 -422290926 1260583194 580762062 1928581967 -243721207 56875335 -62423636 -289134455 -1308642465 -69377215 -1803824434 -986039290
REM
REM Al.pp (3b69e4bd14b647c3cd091ae36dc80706)
REM 
CELL 1.54180  102.73951   68.76969   32.38815  121.94369   77.40507  135.91315
LATT -1
SFAC Al 
Al     1  0.5099869387547  0.5515622847579  0.6002138545109 1.0
Al     1  0.4941049516660  0.4707103021865  0.5111759911272 1.0
Al     1  0.4826250736994  0.4928944976204  0.5519062198913 1.0
Al     1  0.4624417187672  0.4373734359231  0.4849114714301 1.0
Al     1  0.5097288342853  0.5193377752755  0.5307513688657 1.0
Al     1  0.5377293091882  0.5638279539431  0.5863069652400 1.0
Al     1  0.5091718082306  0.4875774392988  0.4579656878401 1.0
Al     1  0.4872409264748  0.4648332540892  0.3975945617099 1.0
Al     1  0.4798282358663  0.4359829036152  0.4287696611040 1.0
Al     1  0.4827241467894  0.4777405107109  0.4725646232734 1.0
Al     1  0.5276260448707  0.5133012733726  0.5312950386473 1.0
Al     1  0.4569944061309  0.4292190981043  0.4092075208651 1.0
Al     1  0.4921570815003  0.5255747505475  0.5254087413521 1.0
Al     1  0.5353229949774  0.5434487340653  0.5027567113810 1.0
Al     1  0.5075236793937  0.5199129468399  0.4649934499465 1.0
Al     1  0.5247938494048  0.5667027396497  0.5441782328152 1.0
END
