TITL Al-3151-3042-196 0.0000000000 121391.2544203721 -46.4190000709 0 0 15 (C1) n - 1
REM
REM Run started: at Wed 1 Jul 11:39:29 BST 2020 in /home/jrjturnbull/SummerProject/AIRSS/1_LJ/3
REM pp3 from code version 0.9.1 bugfix July 2018 build 013d7b7c2542+ Fri, 06 Jul 2018 19:26:36 +0100
REM
REM
REM
REM
REM ./Al.cell (d0a95b329046b05477db976886f073f8)
REM AIRSS Version 0.9.1 bugfix July 2018 build 013d7b7c2542+ Fri, 06 Jul 2018 19:26:36 +0100
REM compiler GCC version 7.5.0
REM options -cpp -imultiarch x86_64-linux-gnu -mtune=generic -march=x86-64 -g -O0
REM seed 538829116 964976841 -504929455 1247299506 -1602960126 -1985461597 -1433593354 1968908228 106426571 139329830 -394754516 -1286155343 -1709802692 -1981950163 -72673713 1510435326 446326827 -1495055788 837934021 1771596057 597447824 727872678 1444596611 -612158010 -1046390753 -953630005 1738634272 -1027773763 -1920262970 1053588771 -392738723 -100870336 447762374
REM
REM Al.pp (3b69e4bd14b647c3cd091ae36dc80706)
REM 
CELL 1.54180   99.93115   47.40572   30.44318  103.28975  104.54246   61.26566
LATT -1
SFAC Al 
Al     1  0.4814376677859  0.5702395830877  0.4683406898097 1.0
Al     1  0.5285738589197  0.4469122283144  0.4976068049665 1.0
Al     1  0.5131102208479  0.5249723064773  0.5716425054834 1.0
Al     1  0.4922745113656  0.5166574853852  0.4499285215490 1.0
Al     1  0.5079448985899  0.4526748353387  0.5216873171163 1.0
Al     1  0.4690896147534  0.5422521587060  0.4730954171935 1.0
Al     1  0.5239129982768  0.4704693784550  0.5694325583246 1.0
Al     1  0.5329539863080  0.4907751217663  0.5317846419072 1.0
Al     1  0.4867210958183  0.4948486551998  0.4952367143549 1.0
Al     1  0.5095217589824  0.4952265588920  0.5080658108369 1.0
Al     1  0.4900325987869  0.4448329844427  0.4668703273270 1.0
Al     1  0.5050248938368  0.4623688806757  0.4502494351944 1.0
Al     1  0.4895751614324  0.5403434749775  0.5248332038418 1.0
Al     1  0.4713601074504  0.5473861005725  0.4046384104570 1.0
Al     1  0.4984667268454  0.5000403477090  0.5665875416378 1.0
END
