TITL Al-3151-3042-47 0.0000000000 126034.0280052388 -54.8589879169 0 0 16 (C1) n - 1
REM
REM Run started: at Wed 1 Jul 11:39:07 BST 2020 in /home/jrjturnbull/SummerProject/AIRSS/1_LJ/3
REM pp3 from code version 0.9.1 bugfix July 2018 build 013d7b7c2542+ Fri, 06 Jul 2018 19:26:36 +0100
REM
REM
REM
REM
REM ./Al.cell (d0a95b329046b05477db976886f073f8)
REM AIRSS Version 0.9.1 bugfix July 2018 build 013d7b7c2542+ Fri, 06 Jul 2018 19:26:36 +0100
REM compiler GCC version 7.5.0
REM options -cpp -imultiarch x86_64-linux-gnu -mtune=generic -march=x86-64 -g -O0
REM seed 1485508881 -1347912261 1374879320 2096792229 173061713 -904518340 1033130319 831498553 1283988728 623021233 794050938 1551465166 -104990682 -903165012 -24748837 -1563407551 1660592549 214511822 512842604 557417570 1744515491 1217204959 1704982556 -381995907 -390857402 -1773711070 -589805805 -247756267 -826014673 -1990456820 -1866853057 -221136874 263121442
REM
REM Al.pp (3b69e4bd14b647c3cd091ae36dc80706)
REM 
CELL 1.54180   34.49117   96.74922   45.50419  110.67557   62.67422  101.91617
LATT -1
SFAC Al 
Al     1  0.5039733348202  0.4912975387436  0.4265933578946 1.0
Al     1  0.4289958251585  0.4852512440520  0.5153997295661 1.0
Al     1  0.5246923924943  0.5308754529033  0.5060747191283 1.0
Al     1  0.5505918225398  0.4877369646710  0.4951064341782 1.0
Al     1  0.4600969889698  0.5183392337500  0.5186514027139 1.0
Al     1  0.4960218266059  0.4950742381437  0.5478092132762 1.0
Al     1  0.5474734191133  0.4904057520604  0.4499036805730 1.0
Al     1  0.4387576068057  0.5049852599879  0.5547603262693 1.0
Al     1  0.4864194939573  0.4753013194840  0.5080373807028 1.0
Al     1  0.5606107282391  0.5075623479183  0.5351123998344 1.0
Al     1  0.4935200288130  0.4978368195884  0.5023600066678 1.0
Al     1  0.5144995004291  0.5110917861239  0.4662077205825 1.0
Al     1  0.4499131992527  0.4985265013917  0.4792103593135 1.0
Al     1  0.4834953697991  0.4779110813619  0.4627481561512 1.0
Al     1  0.5032807264867  0.5175374288550  0.5422753172041 1.0
Al     1  0.5576577365156  0.5102670309649  0.4897497959438 1.0
END
