TITL Al-3151-3042-40 0.0000000000 133211.9931047192 -53.9576707947 0 0 16 (C1) n - 1
REM
REM Run started: at Wed 1 Jul 11:39:06 BST 2020 in /home/jrjturnbull/SummerProject/AIRSS/1_LJ/3
REM pp3 from code version 0.9.1 bugfix July 2018 build 013d7b7c2542+ Fri, 06 Jul 2018 19:26:36 +0100
REM
REM
REM
REM
REM ./Al.cell (d0a95b329046b05477db976886f073f8)
REM AIRSS Version 0.9.1 bugfix July 2018 build 013d7b7c2542+ Fri, 06 Jul 2018 19:26:36 +0100
REM compiler GCC version 7.5.0
REM options -cpp -imultiarch x86_64-linux-gnu -mtune=generic -march=x86-64 -g -O0
REM seed -643720282 -103633270 1302123780 430335614 -1020984495 -1594474590 -1823700802 -992000417 -317274359 1475616749 -847802757 -919564053 -1597753398 -1042243501 -1093117429 605880744 -645576097 -362268646 7178863 1411007717 -1870918967 -1643011380 804189688 -318286924 -820185417 1160224928 258798115 1776202437 1702313739 1635559118 778109915 2020252980 767826816
REM
REM Al.pp (3b69e4bd14b647c3cd091ae36dc80706)
REM 
CELL 1.54180   83.88143   53.13162   50.54207   90.58714  142.88813   82.66426
LATT -1
SFAC Al 
Al     1  0.5420768679174  0.4755423751595  0.5278457229956 1.0
Al     1  0.5088891123646  0.4707745131880  0.5517871849324 1.0
Al     1  0.5216679509607  0.5331224717210  0.5425762092265 1.0
Al     1  0.5106489414157  0.5090635702652  0.4945051057210 1.0
Al     1  0.4707347557166  0.4605889501502  0.4388579748741 1.0
Al     1  0.5063978744833  0.4711986857353  0.5048238988578 1.0
Al     1  0.4701031496257  0.5019966234821  0.4442160095821 1.0
Al     1  0.4723399491986  0.4993388449764  0.5191427531914 1.0
Al     1  0.4941143731520  0.5069447296037  0.5123752681486 1.0
Al     1  0.5164992772564  0.5480540374165  0.4950378382795 1.0
Al     1  0.4792821651417  0.5406089744483  0.4684186241285 1.0
Al     1  0.5519195377162  0.5147429421074  0.5521282523917 1.0
Al     1  0.4995054391606  0.4795134299551  0.4535213834681 1.0
Al     1  0.4681971558631  0.4775834510050  0.4767396561827 1.0
Al     1  0.5369851169423  0.4904541230293  0.5630117011166 1.0
Al     1  0.4506385330856  0.5204722777572  0.4550125169037 1.0
END
