TITL Al-3151-3042-26 0.0000000000 89773.1768802326 -32.7646232579 0 0 11 (C2v) n - 1
REM
REM Run started: at Wed 1 Jul 11:39:04 BST 2020 in /home/jrjturnbull/SummerProject/AIRSS/1_LJ/3
REM pp3 from code version 0.9.1 bugfix July 2018 build 013d7b7c2542+ Fri, 06 Jul 2018 19:26:36 +0100
REM
REM
REM
REM
REM ./Al.cell (d0a95b329046b05477db976886f073f8)
REM AIRSS Version 0.9.1 bugfix July 2018 build 013d7b7c2542+ Fri, 06 Jul 2018 19:26:36 +0100
REM compiler GCC version 7.5.0
REM options -cpp -imultiarch x86_64-linux-gnu -mtune=generic -march=x86-64 -g -O0
REM seed 282786517 1117830688 -663481782 -1180638789 -691298665 316311381 171167715 -386489615 1500139053 -546318644 -772444783 1277717151 -1073115402 -1123971222 -1180182019 1151655381 -1380502018 -1422184526 1333395445 1501408211 -392801185 783369344 -1018775091 1538068070 1811788510 1594357691 1356696106 1382444419 -1569494456 260098636 1415168693 1284711212 -2127337889
REM
REM Al.pp (3b69e4bd14b647c3cd091ae36dc80706)
REM 
CELL 1.54180   45.57364   62.48580   37.87484  123.26231   86.20498   95.39163
LATT -1
SFAC Al 
Al     1  0.5331120509399  0.5238615457011  0.4784624733163 1.0
Al     1  0.4785005308538  0.4757166754731  0.5128063428429 1.0
Al     1  0.4605119571939  0.4984408054628  0.4911087248404 1.0
Al     1  0.5205956392744  0.4600777753973  0.4792653580302 1.0
Al     1  0.4832964838685  0.5183626497459  0.5531184821120 1.0
Al     1  0.5285593619394  0.5329798444884  0.5458780613980 1.0
Al     1  0.5213174550843  0.4960750624015  0.5463426148810 1.0
Al     1  0.4910869466845  0.5002155380049  0.4438941591472 1.0
Al     1  0.4838450553915  0.4633107528743  0.4443587025638 1.0
Al     1  0.4898859666683  0.5337369873118  0.5120759947546 1.0
Al     1  0.5092885521016  0.4972223631390  0.4926891861137 1.0
END
