TITL Al-3151-3042-81 0.0000000000 117034.7377697036 -47.8429465585 0 0 14 (C3v) n - 1
REM
REM Run started: at Wed 1 Jul 11:39:12 BST 2020 in /home/jrjturnbull/SummerProject/AIRSS/1_LJ/3
REM pp3 from code version 0.9.1 bugfix July 2018 build 013d7b7c2542+ Fri, 06 Jul 2018 19:26:36 +0100
REM
REM
REM
REM
REM ./Al.cell (d0a95b329046b05477db976886f073f8)
REM AIRSS Version 0.9.1 bugfix July 2018 build 013d7b7c2542+ Fri, 06 Jul 2018 19:26:36 +0100
REM compiler GCC version 7.5.0
REM options -cpp -imultiarch x86_64-linux-gnu -mtune=generic -march=x86-64 -g -O0
REM seed -596304794 -1652020086 940489586 -1335489441 1905456750 -963733443 2120143215 1007198595 961899770 1644433581 -1773600068 -933184548 -534259668 -233327258 15895617 -1618442492 1022533144 -1603762177 -962432937 -1740072539 998742633 1999306347 -1777718848 1175048534 -1378322104 -700662317 1149235442 1744199797 -1646517608 294528164 -717480605 -1761653067 1283531034
REM
REM Al.pp (3b69e4bd14b647c3cd091ae36dc80706)
REM 
CELL 1.54180   30.12858  107.92504   64.56186   84.02718   89.66245  145.38644
LATT -1
SFAC Al 
Al     1  0.3833652077091  0.4728837513372  0.5043733053798 1.0
Al     1  0.6384828893411  0.5353813402281  0.4948011281786 1.0
Al     1  0.3574134068766  0.4466372508788  0.5053869180342 1.0
Al     1  0.4483357444685  0.4925330667937  0.5305846203867 1.0
Al     1  0.5687506807936  0.5109975591826  0.5261006259181 1.0
Al     1  0.4530456034098  0.4971535258341  0.4730878756160 1.0
Al     1  0.4442226864762  0.5057309420924  0.5020539174642 1.0
Al     1  0.5734625035509  0.5156199416197  0.4685799632437 1.0
Al     1  0.4636818166518  0.4790293112410  0.4835707802998 1.0
Al     1  0.5615086495525  0.5321258967981  0.4799371844598 1.0
Al     1  0.5108593181071  0.5040640753708  0.4995897509606 1.0
Al     1  0.4607536301371  0.4761567117499  0.5193172289673 1.0
Al     1  0.5585961435736  0.5292686738551  0.5154923155900 1.0
Al     1  0.5775218193521  0.5024179530184  0.4971245855013 1.0
END
