TITL Al-3151-3042-118 0.0000000000 77284.8371463516 -27.4457294157 0 0 10 (Cs) n - 1
REM
REM Run started: at Wed 1 Jul 11:39:17 BST 2020 in /home/jrjturnbull/SummerProject/AIRSS/1_LJ/3
REM pp3 from code version 0.9.1 bugfix July 2018 build 013d7b7c2542+ Fri, 06 Jul 2018 19:26:36 +0100
REM
REM
REM
REM
REM ./Al.cell (d0a95b329046b05477db976886f073f8)
REM AIRSS Version 0.9.1 bugfix July 2018 build 013d7b7c2542+ Fri, 06 Jul 2018 19:26:36 +0100
REM compiler GCC version 7.5.0
REM options -cpp -imultiarch x86_64-linux-gnu -mtune=generic -march=x86-64 -g -O0
REM seed 1537347094 1729478666 1380845421 -157001590 -600925790 591901369 -1610025903 689064530 -295268939 -914675052 2011832805 641478058 -409787702 511884864 -203690419 528174883 -1906042811 -408420863 1082214914 1526948647 -1980370978 -366772592 1180055912 338214451 2077001337 -852579464 -1073121734 -457888112 -672714743 1502563128 -302278086 -1581183416 1760153665
REM
REM Al.pp (3b69e4bd14b647c3cd091ae36dc80706)
REM 
CELL 1.54180   44.41758   32.61739   59.32828   98.16733  100.48492   66.51159
LATT -1
SFAC Al 
Al     1  0.4742702423131  0.4874298533423  0.4695292503896 1.0
Al     1  0.4812079268351  0.5032343357106  0.5071299635486 1.0
Al     1  0.4642396315028  0.5750979928925  0.5194645808942 1.0
Al     1  0.5331556283290  0.4664566096284  0.5221765360903 1.0
Al     1  0.5077740563452  0.4337782194399  0.4933534417561 1.0
Al     1  0.4796470957474  0.5521431431292  0.4841270014060 1.0
Al     1  0.4977198716759  0.5214840562850  0.5432721518443 1.0
Al     1  0.5175402870143  0.5385637686927  0.5156541834522 1.0
Al     1  0.5234705692458  0.4873211692298  0.4864600623594 1.0
Al     1  0.5209744909915  0.4344906516496  0.4588328282594 1.0
END
