TITL Al-3151-3042-168 0.0000000000 87301.4274389885 -29.9942643172 0 0 11 (C1) n - 1
REM
REM Run started: at Wed 1 Jul 11:39:25 BST 2020 in /home/jrjturnbull/SummerProject/AIRSS/1_LJ/3
REM pp3 from code version 0.9.1 bugfix July 2018 build 013d7b7c2542+ Fri, 06 Jul 2018 19:26:36 +0100
REM
REM
REM
REM
REM ./Al.cell (d0a95b329046b05477db976886f073f8)
REM AIRSS Version 0.9.1 bugfix July 2018 build 013d7b7c2542+ Fri, 06 Jul 2018 19:26:36 +0100
REM compiler GCC version 7.5.0
REM options -cpp -imultiarch x86_64-linux-gnu -mtune=generic -march=x86-64 -g -O0
REM seed 1930044401 356056921 -337841259 660995305 1605600196 -54535485 82176161 1258763003 371935598 389896659 -1075925702 265137020 984084568 -803295506 -1809618281 -1832266612 -55125062 -1389560321 -1894005801 -1182522528 1114732707 -2142222391 2142470817 -834821711 319702111 -1540978187 1369507436 -2144090003 2122056345 1302689621 1007273241 -1055881408 798540831
REM
REM Al.pp (3b69e4bd14b647c3cd091ae36dc80706)
REM 
CELL 1.54180   54.79292   46.70574   48.49337  103.11980   82.50768  133.71112
LATT -1
SFAC Al 
Al     1  0.4909493144549  0.4750945734235  0.5247031838531 1.0
Al     1  0.4821018669231  0.4580442523807  0.4778135754415 1.0
Al     1  0.5198633104064  0.5344447969291  0.5134311723210 1.0
Al     1  0.5193841655872  0.5189424418749  0.4670006412549 1.0
Al     1  0.4857740910856  0.5423748086966  0.5335974942353 1.0
Al     1  0.4640849822590  0.4850128227561  0.5042385005780 1.0
Al     1  0.4943237585336  0.5408543824112  0.4866692813965 1.0
Al     1  0.5440146999971  0.5266400332692  0.5408518997886 1.0
Al     1  0.5349429868150  0.5010570956006  0.4946122838211 1.0
Al     1  0.4997830434673  0.4370933219586  0.4994275878244 1.0
Al     1  0.4647775804706  0.4804414706995  0.4576542794855 1.0
END
