TITL Al-3151-3042-2 0.0000000000 96378.9029067429 -34.8888662395 0 0 12 (Cs) n - 1
REM
REM Run started: at Wed 1 Jul 11:39:00 BST 2020 in /home/jrjturnbull/SummerProject/AIRSS/1_LJ/3
REM pp3 from code version 0.9.1 bugfix July 2018 build 013d7b7c2542+ Fri, 06 Jul 2018 19:26:36 +0100
REM
REM
REM
REM
REM ./Al.cell (d0a95b329046b05477db976886f073f8)
REM AIRSS Version 0.9.1 bugfix July 2018 build 013d7b7c2542+ Fri, 06 Jul 2018 19:26:36 +0100
REM compiler GCC version 7.5.0
REM options -cpp -imultiarch x86_64-linux-gnu -mtune=generic -march=x86-64 -g -O0
REM seed -476629403 -1438972626 -490210315 -1677787790 1626155407 -2077912014 629527029 261207979 -671406122 589570885 317549560 924832653 -459554952 1802619928 431345649 645499235 421196490 -2032384054 -2071945504 -25885955 856279642 83009551 -290289055 58383098 1922434598 1027126565 1329970117 -1941445105 -1057085674 -27165442 -1808574462 433941418 -1928405925
REM
REM Al.pp (3b69e4bd14b647c3cd091ae36dc80706)
REM 
CELL 1.54180   52.41849   49.58888   49.66298   62.51248   65.24017   96.27161
LATT -1
SFAC Al 
Al     1  0.5164387661496  0.5038467504856  0.4505793963451 1.0
Al     1  0.5379271542624  0.4931497667084  0.4841083711343 1.0
Al     1  0.4709816313140  0.4893888347882  0.5549524624153 1.0
Al     1  0.4649619067316  0.4773511668824  0.4894708345415 1.0
Al     1  0.4490491389791  0.4993472531571  0.5216623198988 1.0
Al     1  0.5323449053295  0.5420730355143  0.4587405902647 1.0
Al     1  0.5224175481590  0.5156897129600  0.5161601363666 1.0
Al     1  0.5003937261684  0.4612048467755  0.5433834317349 1.0
Al     1  0.4550530653205  0.4510170578272  0.5467832780537 1.0
Al     1  0.5697232198555  0.5383001541801  0.4691656378226 1.0
Al     1  0.4936924866980  0.4966275768002  0.5027864849891 1.0
Al     1  0.4870165510324  0.5320038439209  0.4622069564336 1.0
END
