TITL Al-3151-3042-130 0.0000000000 107884.5694861724 -45.9184999338 0 0 14 (Cs) n - 1
REM
REM Run started: at Wed 1 Jul 11:39:19 BST 2020 in /home/jrjturnbull/SummerProject/AIRSS/1_LJ/3
REM pp3 from code version 0.9.1 bugfix July 2018 build 013d7b7c2542+ Fri, 06 Jul 2018 19:26:36 +0100
REM
REM
REM
REM
REM ./Al.cell (d0a95b329046b05477db976886f073f8)
REM AIRSS Version 0.9.1 bugfix July 2018 build 013d7b7c2542+ Fri, 06 Jul 2018 19:26:36 +0100
REM compiler GCC version 7.5.0
REM options -cpp -imultiarch x86_64-linux-gnu -mtune=generic -march=x86-64 -g -O0
REM seed -718507765 780063425 -1436622250 -1268626358 165287126 1038067369 1106619021 1906910812 -953531841 -166009219 -630253582 -642499522 -2045308382 -1048614064 1672344628 -617952041 -1035275536 -1014948133 1029657218 -1131154126 -1085417700 -979683436 345994392 1667829226 2030094770 -1509246815 -1761488471 410131795 -1920064243 123610314 -541395569 1185855456 -1740466087
REM
REM Al.pp (3b69e4bd14b647c3cd091ae36dc80706)
REM 
CELL 1.54180   63.69911   50.18161   51.71498   82.45838   58.17331  117.59862
LATT -1
SFAC Al 
Al     1  0.4764060804489  0.5400126262290  0.5234592775704 1.0
Al     1  0.4642552463133  0.4884396599690  0.5350175177412 1.0
Al     1  0.5093030645917  0.5319180903360  0.5206548679812 1.0
Al     1  0.5056087235600  0.4630681786574  0.4772308417557 1.0
Al     1  0.4837783615219  0.4740712349807  0.5544654607785 1.0
Al     1  0.5089390581993  0.4976764242873  0.4991601671348 1.0
Al     1  0.5519483462543  0.5047736074929  0.4621866308975 1.0
Al     1  0.4568854202612  0.5092078446688  0.5027971503810 1.0
Al     1  0.5095800254446  0.4572810193229  0.5182688564641 1.0
Al     1  0.5069489258368  0.5362969597958  0.4785045920553 1.0
Al     1  0.5315799573010  0.5195185472711  0.4440514118751 1.0
Al     1  0.4644216756294  0.4442377646123  0.5329477038003 1.0
Al     1  0.4779998501445  0.4825672204703  0.4875509363331 1.0
Al     1  0.5523452644931  0.5509310219064  0.4637045852319 1.0
END
