TITL Al-3151-3042-155 0.0000000000 123145.0567982673 -53.6927238750 0 0 16 (Cs) n - 1
REM
REM Run started: at Wed 1 Jul 11:39:23 BST 2020 in /home/jrjturnbull/SummerProject/AIRSS/1_LJ/3
REM pp3 from code version 0.9.1 bugfix July 2018 build 013d7b7c2542+ Fri, 06 Jul 2018 19:26:36 +0100
REM
REM
REM
REM
REM ./Al.cell (d0a95b329046b05477db976886f073f8)
REM AIRSS Version 0.9.1 bugfix July 2018 build 013d7b7c2542+ Fri, 06 Jul 2018 19:26:36 +0100
REM compiler GCC version 7.5.0
REM options -cpp -imultiarch x86_64-linux-gnu -mtune=generic -march=x86-64 -g -O0
REM seed -84927290 1780072417 98143433 -1071802325 1579097841 1753793527 793162432 -2019731762 -950875725 1509273331 -901727474 1389160846 -1492794966 714480819 1232218314 -981897941 2109072168 -1548873749 -129309512 1832228696 -2009585763 -1763826037 1870997458 -108860178 1133670031 1697918270 -1119007329 -1880496204 -2118680371 -2035179826 777957432 15599769 2006938894
REM
REM Al.pp (3b69e4bd14b647c3cd091ae36dc80706)
REM 
CELL 1.54180   58.93313   50.80331   54.74643  129.69867  102.34961   80.88329
LATT -1
SFAC Al 
Al     1  0.5166917391453  0.4432274826469  0.4425461808047 1.0
Al     1  0.5143001680706  0.5279591875579  0.5442899173786 1.0
Al     1  0.5506438207200  0.4708950682370  0.4788422849690 1.0
Al     1  0.5169521010300  0.4822539484023  0.4939263309422 1.0
Al     1  0.5396231690464  0.5259775777826  0.5168764369294 1.0
Al     1  0.4873731369603  0.4831791333255  0.4606867912095 1.0
Al     1  0.4499351116081  0.5210796271257  0.5231904092253 1.0
Al     1  0.4836854143774  0.4988312075832  0.5085757312951 1.0
Al     1  0.5230223279643  0.4973772429444  0.4656161131252 1.0
Al     1  0.4636427424249  0.5269667279019  0.4917644001220 1.0
Al     1  0.4890070257741  0.4441839580885  0.4668509358274 1.0
Al     1  0.5019210069411  0.5317855820967  0.5052162796923 1.0
Al     1  0.4801014091031  0.5556381458520  0.5430873211532 1.0
Al     1  0.4547822985570  0.4740776752251  0.4698086990185 1.0
Al     1  0.4816308208405  0.5244932608441  0.5586853815648 1.0
Al     1  0.5466876074370  0.4920741743862  0.5300367867429 1.0
END
