TITL Al-4194-5656-1 0.0000000000 8000.0000000000 -41.4427025362 0 0 13 (Cs) n - 1
REM
REM Run started: at Tue 30 Jun 16:39:39 BST 2020 in /home/jrjturnbull/SummerProject/AIRSS/airss-0.9.1/.check/1.2
REM pp3 from code version 0.9.1 bugfix July 2018 build 013d7b7c2542+ Fri, 06 Jul 2018 19:26:36 +0100
REM
REM
REM
REM
REM ./Al.cell (8f0fc5c9d882ed20c27978dd052da9d4)
REM AIRSS Version 0.9.1 bugfix July 2018 build 013d7b7c2542+ Fri, 06 Jul 2018 19:26:36 +0100
REM compiler GCC version 7.5.0
REM options -cpp -imultiarch x86_64-linux-gnu -mtune=generic -march=x86-64 -g -O0
REM seed 1131779281 -1607929098 -1169505301 963093429 1755044714 -1503701114 -1865474405 -971465933 536081982 -320311453 -1874200869 1431021901 -1595764124 1796340680 -557244543 1264170745 713182680 1606926403 1236468327 -523620559 -2059651844 -9540151 -1002506845 -1881474134 638266795 -1606350525 -1653109562 739072197 1245789958 -1629792568 1551247091 1548815442 -1528095433
REM
REM Al.pp (e4fc5d4412d1ecf009fcd5f92cd21f1b)
REM 
CELL 1.54180   20.00000   20.00000   20.00000   90.00000   90.00000   90.00000
LATT -1
SFAC Al 
Al     1  0.4043533684142  0.5391131494257  0.5035332885086 1.0
Al     1  0.6116286678892  0.4810910256176  0.4763102457928 1.0
Al     1  0.4909589239899  0.5991367358552  0.5509665674358 1.0
Al     1  0.5407832304072  0.4235001026737  0.5422666489275 1.0
Al     1  0.5523710454036  0.5243516474590  0.3901126189681 1.0
Al     1  0.4418244248606  0.4921875370573  0.4048054985661 1.0
Al     1  0.5267681868504  0.4218946891358  0.4305323236700 1.0
Al     1  0.4374084341107  0.4303706640564  0.4990040184697 1.0
Al     1  0.5078231075812  0.5129135444442  0.4879210096081 1.0
Al     1  0.4671770142511  0.4951667993580  0.5875570197246 1.0
Al     1  0.5827419913532  0.5904589312906  0.4804574883292 1.0
Al     1  0.3614203339889  0.4634989783249  0.5732944633530 1.0
Al     1  0.5747413708998  0.5263160953016  0.5732388086465 1.0
END
