TITL Al-8937-7933-1 0.0000002299 67.7201727504 -47.6004618374 0 0 8 (Cm) n - 1
REM
REM Run started: at Tue 30 Jun 16:50:55 BST 2020 in /home/jrjturnbull/SummerProject/AIRSS/1.01
REM pp3 from code version 0.9.1 bugfix July 2018 build 013d7b7c2542+ Fri, 06 Jul 2018 19:26:36 +0100
REM
REM
REM
REM
REM ./Al.cell (85a0faab8a17d55cbb48e7dfb8a17780)
REM AIRSS Version 0.9.1 bugfix July 2018 build 013d7b7c2542+ Fri, 06 Jul 2018 19:26:36 +0100
REM compiler GCC version 7.5.0
REM options -cpp -imultiarch x86_64-linux-gnu -mtune=generic -march=x86-64 -g -O0
REM seed 556283758 -912590073 -1773851890 -1338095271 -1113593623 -1189228419 1278995379 399602858 -1975041546 1930024464 50479379 -451131471 -1864942814 385283871 53703603 -558423080 -1641458932 569568619 -399487489 -415608975 3589682 -598458236 -1114342846 -46397239 1563385675 1179727245 -1660922943 -1304153740 -1759565780 -522844956 423918110 1866738930 -814781765
REM
REM Al.pp (f2797bbfdcbb04a791f6b51a0cfd42a5)
REM 
CELL 1.54180    2.21087    5.80265    5.52847  103.18389   90.00000   79.01773
LATT -1
SFAC Al 
Al     1  0.2501613634762  0.2151647014313  0.9928721184128 1.0
Al     1  0.3255908958903  0.0643056302150  0.3232737975021 1.0
Al     1 -0.0808269647021  0.8771413589732  0.9861110608816 1.0
Al     1 -0.4167822513822  0.5490519313135  0.9973363402914 1.0
Al     1  0.8415169173175  0.0324535920625  0.6590424281200 1.0
Al     1 -0.0081880497209  0.7318635162299  0.3344668024480 1.0
Al     1 -0.3412168691025  0.3979211603680  0.3270755028000 1.0
Al     1  0.1715917582237  0.3723039094066  0.6612167495440 1.0
END
