TITL Al-8937-7933-67 0.0000001612 62.2746168444 -51.1878143289 0 0 8 (C2/m) n - 2
REM
REM Run started: at Tue 30 Jun 16:51:03 BST 2020 in /home/jrjturnbull/SummerProject/AIRSS/1.01
REM pp3 from code version 0.9.1 bugfix July 2018 build 013d7b7c2542+ Fri, 06 Jul 2018 19:26:36 +0100
REM
REM
REM
REM
REM ./Al.cell (85a0faab8a17d55cbb48e7dfb8a17780)
REM AIRSS Version 0.9.1 bugfix July 2018 build 013d7b7c2542+ Fri, 06 Jul 2018 19:26:36 +0100
REM compiler GCC version 7.5.0
REM options -cpp -imultiarch x86_64-linux-gnu -mtune=generic -march=x86-64 -g -O0
REM seed 1486516300 -279019369 -2026873354 684432946 -771629758 -631219992 -747839934 -703519997 1234340896 -507418857 -1160931746 134370992 1827559336 -1219140038 890238209 574717587 -1003035574 -2131668748 183205459 -1186338792 1786389687 1163565140 1800704293 -1403798325 1614067021 1615948445 1572817003 1148109097 1921857856 284349029 -987106833 1567762378 676256742
REM
REM Al.pp (f2797bbfdcbb04a791f6b51a0cfd42a5)
REM 
CELL 1.54180    2.18514    5.34569    5.58212   77.13758   78.71283   89.99997
LATT -1
SFAC Al 
Al     1  0.9574600050104  0.0890119260622  0.8425338574054 1.0
Al     1  0.8369086772529  0.3627469224111  0.0836368198513 1.0
Al     1  0.3953322973346  0.7256737222390  0.9667893548415 1.0
Al     1  0.7171112031170  0.6385358530977  0.3232324448876 1.0
Al     1  0.5931180740605  0.9034416070810  0.5712194172639 1.0
Al     1  0.5193254256266  0.4607679681577  0.7188023829273 1.0
Al     1  0.1549834951310  0.2751976483637  0.4474879423435 1.0
Al     1  0.2755348224670  0.0014626525875  0.2063849804796 1.0
END
