TITL Al-8937-7933-80 -0.0000000040 60.4971945747 -53.2519188553 0 0 8 (R-3m) n - 1
REM
REM Run started: at Tue 30 Jun 16:51:04 BST 2020 in /home/jrjturnbull/SummerProject/AIRSS/1.01
REM pp3 from code version 0.9.1 bugfix July 2018 build 013d7b7c2542+ Fri, 06 Jul 2018 19:26:36 +0100
REM
REM
REM
REM
REM ./Al.cell (85a0faab8a17d55cbb48e7dfb8a17780)
REM AIRSS Version 0.9.1 bugfix July 2018 build 013d7b7c2542+ Fri, 06 Jul 2018 19:26:36 +0100
REM compiler GCC version 7.5.0
REM options -cpp -imultiarch x86_64-linux-gnu -mtune=generic -march=x86-64 -g -O0
REM seed -357581191 -485559994 936126410 913707244 105805502 -1519875489 1170018541 -870897835 1852467102 -417781513 -645789220 -735336209 -666725269 1228498607 1362457918 -1283168472 1351993729 -1837734966 -917089987 2035147394 1095544643 -1536396486 -777311490 -900514306 278439998 -922302898 -1234829105 705419804 -1964118835 723972401 796609267 1036496391 -373700056
REM
REM Al.pp (f2797bbfdcbb04a791f6b51a0cfd42a5)
REM 
CELL 1.54180    2.20337    3.81635    7.30610   85.00560   81.32731   90.00000
LATT -1
SFAC Al 
Al     1  0.3068684883229  0.1764616999962  0.0948287636823 1.0
Al     1  0.8068684882548  0.6764617000031  0.0948287637890 1.0
Al     1  0.4318426866568  0.5514531000122  0.8448803612914 1.0
Al     1  0.9318426866967  0.0514530999848  0.8448803612374 1.0
Al     1  0.6818685021305  0.9681283714151  0.3448287307528 1.0
Al     1  0.1818685021696  0.4681283713742  0.3448287307474 1.0
Al     1  0.5568426728734  0.2597864286216  0.5948803942364 1.0
Al     1  0.0568426728955  0.7597864285928  0.5948803942634 1.0
END
