TITL Al-8937-7933-22 -0.0000001377 67.7253308682 -46.8559704563 0 0 8 (I4/mmm) n - 1
REM
REM Run started: at Tue 30 Jun 16:50:57 BST 2020 in /home/jrjturnbull/SummerProject/AIRSS/1.01
REM pp3 from code version 0.9.1 bugfix July 2018 build 013d7b7c2542+ Fri, 06 Jul 2018 19:26:36 +0100
REM
REM
REM
REM
REM ./Al.cell (85a0faab8a17d55cbb48e7dfb8a17780)
REM AIRSS Version 0.9.1 bugfix July 2018 build 013d7b7c2542+ Fri, 06 Jul 2018 19:26:36 +0100
REM compiler GCC version 7.5.0
REM options -cpp -imultiarch x86_64-linux-gnu -mtune=generic -march=x86-64 -g -O0
REM seed 2064359121 360518691 496068029 -216037605 1078122528 -441121734 1908074954 411299028 -1739777433 -1941511153 -334791197 -2076249050 1927077657 -1113483406 -1632625140 -394466223 -57097638 243691555 -173060389 1216755576 -1650695372 284904516 1938163354 521838553 -839892407 -391002899 559423076 -1577254409 1644926729 2055072581 -907279671 -936647082 -1106559915
REM
REM Al.pp (f2797bbfdcbb04a791f6b51a0cfd42a5)
REM 
CELL 1.54180    3.09260    4.92851    4.92851   95.64915  108.28512   71.71487
LATT -1
SFAC Al 
Al     1  0.7632611711375  0.7496068817736  0.3559679485235 1.0
Al     1  0.0958341251087  0.7522288352662  0.0237358066128 1.0
Al     1  0.0928714234409  0.4199966754513  0.6855782464494 1.0
Al     1  0.4280662828690  0.0877645124868  0.0237358087360 1.0
Al     1  0.0928713794257  0.0903864679841  0.3559679514710 1.0
Al     1  0.7632611265035  0.4199966744381  0.0263576535518 1.0
Al     1  0.7602984291161  0.0877645148997  0.6882000930650 1.0
Al     1  0.4280662623987  0.7522288377003  0.6882000915905 1.0
END
