TITL Al-8937-7933-6 0.0000000051 67.7202021261 -46.8562623812 0 0 8 (C2/m) n - 2
REM
REM Run started: at Tue 30 Jun 16:50:56 BST 2020 in /home/jrjturnbull/SummerProject/AIRSS/1.01
REM pp3 from code version 0.9.1 bugfix July 2018 build 013d7b7c2542+ Fri, 06 Jul 2018 19:26:36 +0100
REM
REM
REM
REM
REM ./Al.cell (85a0faab8a17d55cbb48e7dfb8a17780)
REM AIRSS Version 0.9.1 bugfix July 2018 build 013d7b7c2542+ Fri, 06 Jul 2018 19:26:36 +0100
REM compiler GCC version 7.5.0
REM options -cpp -imultiarch x86_64-linux-gnu -mtune=generic -march=x86-64 -g -O0
REM seed -1778377591 -1074886076 242713693 1467125272 -79418261 640950256 1454834060 452244521 99195702 -825130172 528023909 153651115 -1979747984 1805744273 998486545 285473107 810005850 854877793 -1729792765 -878372654 1465196278 -119479595 1232018988 -874457637 1243420364 249518758 -1893294351 1772035568 985659249 1443807171 -1046372780 205444378 -115453823
REM
REM Al.pp (f2797bbfdcbb04a791f6b51a0cfd42a5)
REM 
CELL 1.54180    3.10107    4.91355    4.93397  107.36017   90.00000   71.60523
LATT -1
SFAC Al 
Al     1  0.9719289162734  0.5727855543041  0.7193956496971 1.0
Al     1  0.5295139835372  0.4576154212032  0.3832276505922 1.0
Al     1  0.3062343645665  0.9041746573631  0.7190767813540 1.0
Al     1  0.1952085352304  0.1262263178627  0.3835465185236 1.0
Al     1  0.4149751883127  0.6866930112903  0.0511345724733 1.0
Al     1  0.0864677120457  0.3437079631429  0.0514887273722 1.0
Al     1  0.6398868035187  0.2368697796082  0.7211139479171 1.0
Al     1  0.8615560965154  0.7935311952255  0.3815093520705 1.0
END
