TITL Al-3341-3492-82 0.0000000000 8000.0000000000 -165.1816624355 0 0 38 (C3) n - 1
REM
REM Run started: at Wed 1 Jul 16:42:46 BST 2020 in /home/jrjturnbull/SummerProject/AIRSS/1_LJ/4
REM pp3 from code version 0.9.1 bugfix July 2018 build 013d7b7c2542+ Fri, 06 Jul 2018 19:26:36 +0100
REM
REM
REM
REM
REM ./Al.cell (c296b5e438cc78dca9f711add016f66f)
REM AIRSS Version 0.9.1 bugfix July 2018 build 013d7b7c2542+ Fri, 06 Jul 2018 19:26:36 +0100
REM compiler GCC version 7.5.0
REM options -cpp -imultiarch x86_64-linux-gnu -mtune=generic -march=x86-64 -g -O0
REM seed -1623864966 -672608398 -520644432 -850293958 1207060355 86412725 -1190504193 1615238413 -654511662 -2121143717 -1021417322 -1995980111 254666830 1801239221 567513617 -1291608473 971514520 -1801628427 983429980 665342526 2109127267 -1197470496 -508268467 -906982112 -1705236100 1962098888 -1125631498 150665736 1100559310 -314473454 -349753485 1124982301 592320864
REM
REM Al.pp (3b69e4bd14b647c3cd091ae36dc80706)
REM 
CELL 1.54180   20.00000   20.00000   20.00000   90.00000   90.00000   90.00000
LATT -1
SFAC Al 
Al     1  0.6092819321923  0.3894089252981  0.5403475039119 1.0
Al     1  0.3531471712627  0.4579134827648  0.5403479378295 1.0
Al     1  0.5405412394310  0.6454804124953  0.5403474433688 1.0
Al     1  0.5132357968525  0.3906995978336  0.4825186969172 1.0
Al     1  0.4022878671827  0.5404463802991  0.4825187963891 1.0
Al     1  0.5874463495569  0.5616567137267  0.4825184290905 1.0
Al     1  0.6001661313559  0.3626695403448  0.6464092339652 1.0
Al     1  0.3345483212400  0.4791779806106  0.6464096508553 1.0
Al     1  0.5682564940974  0.6509555335624  0.6464090799052 1.0
Al     1  0.4928129464073  0.6030108676075  0.4479568720291 1.0
Al     1  0.5963661697157  0.4519773567172  0.4479567870092 1.0
Al     1  0.4137907000461  0.4378143900533  0.4479571438659 1.0
Al     1  0.6235989284296  0.5750170523762  0.5829111565661 1.0
Al     1  0.5067301210975  0.3527106525555  0.5829115429629 1.0
Al     1  0.3726415361218  0.5650752092870  0.5829116406083 1.0
Al     1  0.6625672078444  0.5282125640974  0.4089499884183 1.0
Al     1  0.4467117222637  0.3423648983051  0.4089505365030 1.0
Al     1  0.3936906655706  0.6222250660564  0.4089504293237 1.0
Al     1  0.5098460712860  0.4316909524385  0.3813854792900 1.0
Al     1  0.4394820614101  0.5228860121952  0.3813855451300 1.0
Al     1  0.5536413050589  0.5382255014540  0.3813853177322 1.0
Al     1  0.4115761567700  0.4259066790473  0.3362645168289 1.0
Al     1  0.4836075935045  0.6108822668601  0.3362642440218 1.0
Al     1  0.6077854322251  0.4560134197395  0.3362641219784 1.0
Al     1  0.5609071980844  0.4833102301802  0.5525388415236 1.0
Al     1  0.4586554805601  0.4528566114024  0.5525390585266 1.0
Al     1  0.4834077325449  0.5566360056694  0.5525389349263 1.0
Al     1  0.4597289252447  0.6235524647692  0.6315081394892 1.0
Al     1  0.6306981306841  0.4703586651854  0.6315079266161 1.0
Al     1  0.4125438068799  0.3988918902455  0.6315083948806 1.0
Al     1  0.4396712056297  0.5094422935649  0.6451403110430 1.0
Al     1  0.5419047135695  0.5447842845311  0.6451400909428 1.0
Al     1  0.5213950214784  0.4385764738800  0.6451402076928 1.0
Al     1  0.4125188092498  0.3585425706901  0.5230770555846 1.0
Al     1  0.4247976491897  0.6437484752430  0.5230768218364 1.0
Al     1  0.6656537867823  0.4905117363620  0.5230764773048 1.0
Al     1  0.5009896473783  0.4976007583084  0.2941468276938 1.0
Al     1  0.5009899718013  0.4976008842433  0.4653657174388 1.0
END
