TITL Al-3341-3492-175 0.0000000000 8000.0000000000 -168.0794683322 0 0 38 (D2d) n - 1
REM
REM Run started: at Wed 1 Jul 16:43:01 BST 2020 in /home/jrjturnbull/SummerProject/AIRSS/1_LJ/4
REM pp3 from code version 0.9.1 bugfix July 2018 build 013d7b7c2542+ Fri, 06 Jul 2018 19:26:36 +0100
REM
REM
REM
REM
REM ./Al.cell (c296b5e438cc78dca9f711add016f66f)
REM AIRSS Version 0.9.1 bugfix July 2018 build 013d7b7c2542+ Fri, 06 Jul 2018 19:26:36 +0100
REM compiler GCC version 7.5.0
REM options -cpp -imultiarch x86_64-linux-gnu -mtune=generic -march=x86-64 -g -O0
REM seed 1565156250 321659534 -1561774174 2007321657 1902572861 -1370878450 -882995543 -159957726 -1735650972 -1680493361 -458816253 -1154963247 -429146145 -1905859441 1086990455 1751913064 -1946411856 -998801614 1907706680 1946953153 812658706 159764012 95533491 979068025 888612142 1073439611 -113479782 1228250712 -2043882033 -27706187 1443293447 828246064 -1361937399
REM
REM Al.pp (3b69e4bd14b647c3cd091ae36dc80706)
REM 
CELL 1.54180   20.00000   20.00000   20.00000   90.00000   90.00000   90.00000
LATT -1
SFAC Al 
Al     1  0.5570153731908  0.4234010070381  0.7027932711537 1.0
Al     1  0.4429846900422  0.3016922536395  0.4210922680903 1.0
Al     1  0.5570152700232  0.5833929813460  0.2993836421923 1.0
Al     1  0.4429846667087  0.7051017040942  0.5810846926128 1.0
Al     1  0.6043715533323  0.3977499630361  0.5195504569242 1.0
Al     1  0.3956282927811  0.4849350103189  0.3954415938981 1.0
Al     1  0.6043715164401  0.6090440398437  0.4826264377377 1.0
Al     1  0.3956283300684  0.5218589346642  0.6067353848835 1.0
Al     1  0.3956284493081  0.4175436977803  0.5653640443611 1.0
Al     1  0.6043717205298  0.4391215178835  0.4152353052416 1.0
Al     1  0.3956284001665  0.5892502474594  0.4368129343730 1.0
Al     1  0.6043717373943  0.5676724847668  0.5869415898957 1.0
Al     1  0.5269738191517  0.3676182300320  0.4472384804353 1.0
Al     1  0.4730261541552  0.5572467589309  0.3653096312344 1.0
Al     1  0.5269738033179  0.6391757510109  0.5549384459726 1.0
Al     1  0.4730262234404  0.4495472067892  0.6368673162171 1.0
Al     1  0.5000000113908  0.4327615006697  0.5316064823326 1.0
Al     1  0.4999999944185  0.4728789758609  0.4304529890686 1.0
Al     1  0.4999999797377  0.5740324731415  0.4705704544307 1.0
Al     1  0.5000000144618  0.5339149977129  0.5717239475674 1.0
Al     1  0.5374562151148  0.6447327077078  0.3953468123200 1.0
Al     1  0.4625435401575  0.6091384385692  0.6424242701955 1.0
Al     1  0.5374562972282  0.3620612760742  0.6068301087104 1.0
Al     1  0.4625435126706  0.3976555245018  0.3597526820517 1.0
Al     1  0.6723669844814  0.5236470231158  0.4500299997897 1.0
Al     1  0.3276329995312  0.5544555120514  0.5213382258441 1.0
Al     1  0.6723670106932  0.4831469986152  0.5521468677391 1.0
Al     1  0.3276330052538  0.4523384146143  0.4808387799897 1.0
Al     1  0.5374564711448  0.4729545737459  0.3272197871141 1.0
Al     1  0.4625436858889  0.6772657414038  0.4706462462331 1.0
Al     1  0.5374565324370  0.5338394096661  0.6749571349399 1.0
Al     1  0.4625437453384  0.3295282225073  0.5315307061512 1.0
Al     1  0.4215825225117  0.4011738049165  0.4605467777589 1.0
Al     1  0.5784174571946  0.5439387189690  0.3988652873188 1.0
Al     1  0.4215825106606  0.6056201473186  0.5416301907871 1.0
Al     1  0.5784175096336  0.4628552763981  0.6033116179610 1.0
Al     1  0.4229378907182  0.5033969763926  0.5010884837128 1.0
Al     1  0.5770621092819  0.5033969974139  0.5010884527603 1.0
END
