TITL Al-3341-3492-56 0.0000000000 8000.0000000000 -164.9057070686 0 0 38 (C2) n - 1
REM
REM Run started: at Wed 1 Jul 16:42:42 BST 2020 in /home/jrjturnbull/SummerProject/AIRSS/1_LJ/4
REM pp3 from code version 0.9.1 bugfix July 2018 build 013d7b7c2542+ Fri, 06 Jul 2018 19:26:36 +0100
REM
REM
REM
REM
REM ./Al.cell (c296b5e438cc78dca9f711add016f66f)
REM AIRSS Version 0.9.1 bugfix July 2018 build 013d7b7c2542+ Fri, 06 Jul 2018 19:26:36 +0100
REM compiler GCC version 7.5.0
REM options -cpp -imultiarch x86_64-linux-gnu -mtune=generic -march=x86-64 -g -O0
REM seed -1750101027 -2044366894 -580361628 -190172711 1449020172 -744244041 785665561 350136516 1088948459 379437060 753884571 492066619 295368630 1317803961 1106802428 -617986484 -1196307523 -102728061 874101359 -529345694 -215683204 832747600 -1778444190 399748879 -350684992 1225597818 -1549827296 -1873672942 995459780 -1713312526 -1028854991 503667987 502282959
REM
REM Al.pp (3b69e4bd14b647c3cd091ae36dc80706)
REM 
CELL 1.54180   20.00000   20.00000   20.00000   90.00000   90.00000   90.00000
LATT -1
SFAC Al 
Al     1  0.4738577099576  0.3122325196232  0.6078888086810 1.0
Al     1  0.4738577099449  0.6877674804167  0.3921111913086 1.0
Al     1  0.6325979485728  0.5793829324377  0.4418322831160 1.0
Al     1  0.6325979487230  0.4206170674702  0.5581677170645 1.0
Al     1  0.5209467211569  0.3158476740717  0.4348753468303 1.0
Al     1  0.5209467211356  0.6841523257930  0.5651246531615 1.0
Al     1  0.3559868963402  0.6266522074175  0.4235107795963 1.0
Al     1  0.3559868964284  0.3733477926337  0.5764892204208 1.0
Al     1  0.3742327929726  0.4843473586421  0.5557214817299 1.0
Al     1  0.3742327929066  0.5156526414372  0.4442785182988 1.0
Al     1  0.5388692705698  0.5285993002504  0.4556439586031 1.0
Al     1  0.5388692707657  0.4714006996565  0.5443560413251 1.0
Al     1  0.5816364041229  0.5126872294977  0.6366923072122 1.0
Al     1  0.5816364041594  0.4873127704149  0.3633076928367 1.0
Al     1  0.6368067314839  0.5318612130702  0.5431536208100 1.0
Al     1  0.6368067311961  0.4681387869560  0.4568463794799 1.0
Al     1  0.4358217676417  0.6577567597377  0.4942037897548 1.0
Al     1  0.4358217677376  0.3422432403801  0.5057962102278 1.0
Al     1  0.4714514151678  0.5185518195589  0.6181981095892 1.0
Al     1  0.4714514151309  0.4814481804680  0.3818018902652 1.0
Al     1  0.5388916567718  0.3630875071040  0.5345335023766 1.0
Al     1  0.5388916566546  0.6369124928243  0.4654664976162 1.0
Al     1  0.3511973116399  0.4097318305821  0.4718746537257 1.0
Al     1  0.3511973115626  0.5902681694783  0.5281253462960 1.0
Al     1  0.6252366485672  0.3561011153769  0.4654462237163 1.0
Al     1  0.6252366485377  0.6438988846730  0.5345537762696 1.0
Al     1  0.4506463214308  0.4492667014130  0.4855056266146 1.0
Al     1  0.4506463213950  0.5507332987826  0.5144943733544 1.0
Al     1  0.5514745452304  0.4060600715768  0.6350253435202 1.0
Al     1  0.5514745452041  0.5939399283284  0.3649746564899 1.0
Al     1  0.5417631228880  0.5786971526422  0.5569654087718 1.0
Al     1  0.5417631227608  0.4213028472227  0.4430345911319 1.0
Al     1  0.4545851574130  0.5834397118806  0.4124127340456 1.0
Al     1  0.4545851575143  0.4165602881581  0.5875872658709 1.0
Al     1  0.5279774979656  0.6105257695326  0.6586409752433 1.0
Al     1  0.5279774979429  0.3894742304472  0.3413590246207 1.0
Al     1  0.4360201802475  0.3801240233006  0.4027349055594 1.0
Al     1  0.4360201801595  0.6198759767435  0.5972650944657 1.0
END
