TITL Al-3341-3492-33 0.0000000000 8000.0000000000 -166.6805810473 0 0 38 (Cs) n - 1
REM
REM Run started: at Wed 1 Jul 16:42:39 BST 2020 in /home/jrjturnbull/SummerProject/AIRSS/1_LJ/4
REM pp3 from code version 0.9.1 bugfix July 2018 build 013d7b7c2542+ Fri, 06 Jul 2018 19:26:36 +0100
REM
REM
REM
REM
REM ./Al.cell (c296b5e438cc78dca9f711add016f66f)
REM AIRSS Version 0.9.1 bugfix July 2018 build 013d7b7c2542+ Fri, 06 Jul 2018 19:26:36 +0100
REM compiler GCC version 7.5.0
REM options -cpp -imultiarch x86_64-linux-gnu -mtune=generic -march=x86-64 -g -O0
REM seed -1948366877 229267205 -1706708409 -520375629 -457387994 818714740 1916211620 1395280946 1571124130 -1149857158 -748467491 2010245891 -1044003534 -815371565 -1158048006 -1995389201 -1884101303 -105923388 1216589453 -88155590 611055745 -1685228271 820505287 878853400 -734546298 1522569659 1621901407 1909319584 -108804971 -1722440523 1986779441 -2131660543 1028872863
REM
REM Al.pp (3b69e4bd14b647c3cd091ae36dc80706)
REM 
CELL 1.54180   20.00000   20.00000   20.00000   90.00000   90.00000   90.00000
LATT -1
SFAC Al 
Al     1  0.4479908504292  0.4117746407789  0.3594537076981 1.0
Al     1  0.4442978899566  0.3409813628736  0.5439769851574 1.0
Al     1  0.4479262139593  0.4946281362712  0.6682897487804 1.0
Al     1  0.4445643185616  0.6627409737870  0.5608119720607 1.0
Al     1  0.4446045719266  0.6111086692187  0.3683526906161 1.0
Al     1  0.4578304252634  0.5093141491463  0.4148272284621 1.0
Al     1  0.4481351773014  0.4208058655727  0.4690218091730 1.0
Al     1  0.4481142687710  0.4476046507719  0.5689141637919 1.0
Al     1  0.4577976369073  0.5513549898637  0.5715342911539 1.0
Al     1  0.4451541605568  0.5923407780250  0.4765432958171 1.0
Al     1  0.6313340770317  0.4125881796045  0.4680863107743 1.0
Al     1  0.6313119542793  0.4409778735684  0.5739087558935 1.0
Al     1  0.6121577846585  0.5508006140388  0.5689157435086 1.0
Al     1  0.6326082814926  0.6023507551102  0.4738970710640 1.0
Al     1  0.6121894881928  0.5101610411744  0.4174318808931 1.0
Al     1  0.5389643486511  0.4325698249376  0.4151841741158 1.0
Al     1  0.5384545857891  0.4015719647757  0.5277416515207 1.0
Al     1  0.5389236529634  0.4847457441071  0.6096697182730 1.0
Al     1  0.5372922436265  0.6161877273605  0.5277903141893 1.0
Al     1  0.5373147355300  0.5873445791040  0.4202776064875 1.0
Al     1  0.3592803587953  0.5021419771053  0.6042356391279 1.0
Al     1  0.3574511530576  0.5986455821308  0.5438130683479 1.0
Al     1  0.3574780756070  0.5641193135818  0.4151165584866 1.0
Al     1  0.3593207824432  0.4503311503406  0.4111111150593 1.0
Al     1  0.3547947645829  0.4051471814282  0.5267440999378 1.0
Al     1  0.5286161470619  0.5933577184972  0.6383584831314 1.0
Al     1  0.4904713465663  0.6855182915951  0.4515554437201 1.0
Al     1  0.5286794057213  0.5122366790198  0.3359802590273 1.0
Al     1  0.5020784012704  0.3316050480510  0.4450976489927 1.0
Al     1  0.5020387775707  0.3823621287636  0.6342944599046 1.0
Al     1  0.4037598237808  0.5120819586952  0.3235664333477 1.0
Al     1  0.3870829228075  0.3406438044018  0.4366769778217 1.0
Al     1  0.3870410054463  0.3943900322159  0.6370154390894 1.0
Al     1  0.4036917027748  0.5994241382123  0.6491340920780 1.0
Al     1  0.3767943027385  0.6704592308538  0.4555716704251 1.0
Al     1  0.5290002758128  0.5074457014949  0.4993362030517 1.0
Al     1  0.3881323603142  0.5048202026541  0.5000110861056 1.0
Al     1  0.6843682278004  0.5054440408685  0.4999057029149 1.0
END
