TITL Al-3341-3492-45 0.0000000000 8000.0000000000 -163.5502072305 0 0 38 (D2h) n - 1
REM
REM Run started: at Wed 1 Jul 16:42:41 BST 2020 in /home/jrjturnbull/SummerProject/AIRSS/1_LJ/4
REM pp3 from code version 0.9.1 bugfix July 2018 build 013d7b7c2542+ Fri, 06 Jul 2018 19:26:36 +0100
REM
REM
REM
REM
REM ./Al.cell (c296b5e438cc78dca9f711add016f66f)
REM AIRSS Version 0.9.1 bugfix July 2018 build 013d7b7c2542+ Fri, 06 Jul 2018 19:26:36 +0100
REM compiler GCC version 7.5.0
REM options -cpp -imultiarch x86_64-linux-gnu -mtune=generic -march=x86-64 -g -O0
REM seed 1483739792 -1849255189 1375036304 -256796260 -642812965 323491181 1277228188 757086993 -1736812606 852957881 -957067980 2117968612 -616557429 1846743837 1421735301 44603223 590304914 1557325776 -104086008 542308021 224290422 -887195312 -103478029 1737323006 2117599527 786332970 691239012 1567119411 1919163894 1193559966 1293226166 -1001207883 -129708333
REM
REM Al.pp (3b69e4bd14b647c3cd091ae36dc80706)
REM 
CELL 1.54180   20.00000   20.00000   20.00000   90.00000   90.00000   90.00000
LATT -1
SFAC Al 
Al     1  0.4999999897450  0.6640776718829  0.5551563828948 1.0
Al     1  0.5000000102588  0.6640776718829  0.4448436171052 1.0
Al     1  0.4999999965562  0.3303288228508  0.5551563828974 1.0
Al     1  0.5000000034400  0.3303288228508  0.4448436171026 1.0
Al     1  0.3448951021653  0.5524076012678  0.5556786501883 1.0
Al     1  0.6551048978382  0.5524076012683  0.4443213498093 1.0
Al     1  0.6551048840011  0.4419988934729  0.5556786887130 1.0
Al     1  0.3448951159954  0.4419988934724  0.4443213112846 1.0
Al     1  0.4999999929436  0.5525168411231  0.5547195394405 1.0
Al     1  0.5000000070379  0.5525168411231  0.4452804605595 1.0
Al     1  0.4999999934663  0.4418896536151  0.5547195394425 1.0
Al     1  0.5000000065522  0.4418896536151  0.4452804605575 1.0
Al     1  0.4236125396878  0.6083213829247  0.6111219257919 1.0
Al     1  0.5763874603134  0.6083213829270  0.3888780742070 1.0
Al     1  0.5763874327174  0.3860851118051  0.6111219447658 1.0
Al     1  0.4236125672814  0.3860851118027  0.3888780552330 1.0
Al     1  0.5774325329761  0.6069764697294  0.5000000096815 1.0
Al     1  0.4225674670250  0.6069764697107  0.4999999903185 1.0
Al     1  0.4225674670326  0.3874300250090  0.4999999904469 1.0
Al     1  0.5774325329663  0.3874300250278  0.5000000095531 1.0
Al     1  0.4243565756678  0.4972032488682  0.3885243884284 1.0
Al     1  0.5756434243322  0.4972032488635  0.6114756115716 1.0
Al     1  0.5756434520183  0.4972032458662  0.3885244072182 1.0
Al     1  0.4243565479817  0.4972032458708  0.6114755927818 1.0
Al     1  0.4236125696936  0.6083213873503  0.3888780562206 1.0
Al     1  0.5763874303076  0.6083213873526  0.6111219437806 1.0
Al     1  0.5763874579081  0.3860851073799  0.3888780751963 1.0
Al     1  0.4236125420908  0.3860851073776  0.6111219248049 1.0
Al     1  0.6551048968258  0.4419988905006  0.4443213482702 1.0
Al     1  0.3448951031708  0.4419988905001  0.5556786517323 1.0
Al     1  0.3448951169944  0.5524076042402  0.4443213097432 1.0
Al     1  0.6551048830090  0.5524076042407  0.5556786902593 1.0
Al     1  0.5809563996692  0.7164080364757  0.5000000193090 1.0
Al     1  0.4190436003296  0.7164080364803  0.4999999806910 1.0
Al     1  0.4190436003303  0.2779984582654  0.4999999992010 1.0
Al     1  0.5809563996710  0.2779984582608  0.5000000007989 1.0
Al     1  0.5770499158621  0.4972032473581  0.5000000095698 1.0
Al     1  0.4229500841379  0.4972032473872  0.4999999904302 1.0
END
