TITL Al-3341-3492-29 0.0000000000 8000.0000000000 -169.3484474180 0 0 38 (C5) n - 1
REM
REM Run started: at Wed 1 Jul 16:42:38 BST 2020 in /home/jrjturnbull/SummerProject/AIRSS/1_LJ/4
REM pp3 from code version 0.9.1 bugfix July 2018 build 013d7b7c2542+ Fri, 06 Jul 2018 19:26:36 +0100
REM
REM
REM
REM
REM ./Al.cell (c296b5e438cc78dca9f711add016f66f)
REM AIRSS Version 0.9.1 bugfix July 2018 build 013d7b7c2542+ Fri, 06 Jul 2018 19:26:36 +0100
REM compiler GCC version 7.5.0
REM options -cpp -imultiarch x86_64-linux-gnu -mtune=generic -march=x86-64 -g -O0
REM seed 530241118 -7432112 1639407297 1930978116 100768503 -289646698 -2084809102 -1452135219 -729612580 -855646605 -1805352186 -1844366983 -1256346256 -838388333 -1209020058 -561216891 -2137319401 435531865 -1391922051 -108033299 -101377885 1355148914 1065363699 865556429 -2110997797 2104912955 -53407594 1474291950 1378597856 1890754113 186359495 748033393 -672967149
REM
REM Al.pp (3b69e4bd14b647c3cd091ae36dc80706)
REM 
CELL 1.54180   20.00000   20.00000   20.00000   90.00000   90.00000   90.00000
LATT -1
SFAC Al 
Al     1  0.6340532567773  0.4621745744764  0.6155246053444 1.0
Al     1  0.6551694505295  0.4621746326204  0.4142780806083 1.0
Al     1  0.4702978968891  0.4621745901339  0.3320067643876 1.0
Al     1  0.3349247415927  0.4621745436120  0.4824068434050 1.0
Al     1  0.4361311505924  0.4621745258400  0.6576305375539 1.0
Al     1  0.4205953526831  0.4367875380791  0.5497643249658 1.0
Al     1  0.5266655708845  0.4367875027133  0.5969674993394 1.0
Al     1  0.6043359175498  0.4367874858857  0.5106753474220 1.0
Al     1  0.5462687231177  0.4367875062655  0.4101407175082 1.0
Al     1  0.4327107962252  0.4367875375395  0.4342989665928 1.0
Al     1  0.4324324391442  0.5835476112951  0.6659383928147 1.0
Al     1  0.6408114938241  0.5835476075376  0.6216095681762 1.0
Al     1  0.6630449489794  0.5835476457991  0.4097309541408 1.0
Al     1  0.4684069342562  0.5835476453092  0.3231115679942 1.0
Al     1  0.3258805488844  0.5835476417615  0.4814564716153 1.0
Al     1  0.3811563149861  0.5243964781524  0.3878953556247 1.0
Al     1  0.3605316722156  0.5243964662687  0.5844560319969 1.0
Al     1  0.5410986222921  0.5243964309534  0.6648118084871 1.0
Al     1  0.6733197532239  0.5243964299064  0.5179137440952 1.0
Al     1  0.5744699831790  0.5243964571865  0.3467699768252 1.0
Al     1  0.5496366964449  0.6200378089879  0.4025733001185 1.0
Al     1  0.4265545277067  0.6200378103047  0.4287573993130 1.0
Al     1  0.4134225997643  0.6200377980790  0.5539068403706 1.0
Al     1  0.5283887970804  0.6200377848699  0.6050693489638 1.0
Al     1  0.6125737442611  0.6200377946061  0.5115400857366 1.0
Al     1  0.5850588137965  0.3476483512714  0.5714253398631 1.0
Al     1  0.5980882941530  0.3476482950902  0.4472471703793 1.0
Al     1  0.4840142323113  0.3476484395934  0.3964818778558 1.0
Al     1  0.4004824923948  0.3476485696578  0.4892856694113 1.0
Al     1  0.4629317563522  0.3476485182926  0.5974069722872 1.0
Al     1  0.4161884068247  0.5306378728785  0.4909335815828 1.0
Al     1  0.4693523604004  0.5306378583324  0.5829790875742 1.0
Al     1  0.5733213943016  0.5306378579089  0.5608607868772 1.0
Al     1  0.5844138415334  0.5306378761610  0.4551454317596 1.0
Al     1  0.4873003219359  0.5306378774143  0.4119280396085 1.0
Al     1  0.5061150235584  0.3732387397899  0.5003694378459 1.0
Al     1  0.5061152677007  0.5926581317589  0.5003693924439 1.0
Al     1  0.5061152616536  0.4773875636674  0.5003693791110 1.0
END
