TITL Al-3341-3492-198 0.0000000000 8000.0000000000 -165.0018948487 0 0 38 (C3v) n - 1
REM
REM Run started: at Wed 1 Jul 16:43:04 BST 2020 in /home/jrjturnbull/SummerProject/AIRSS/1_LJ/4
REM pp3 from code version 0.9.1 bugfix July 2018 build 013d7b7c2542+ Fri, 06 Jul 2018 19:26:36 +0100
REM
REM
REM
REM
REM ./Al.cell (c296b5e438cc78dca9f711add016f66f)
REM AIRSS Version 0.9.1 bugfix July 2018 build 013d7b7c2542+ Fri, 06 Jul 2018 19:26:36 +0100
REM compiler GCC version 7.5.0
REM options -cpp -imultiarch x86_64-linux-gnu -mtune=generic -march=x86-64 -g -O0
REM seed -1323935914 -1168866883 -1383437868 2054522159 1585070814 23030982 -173061184 -2142116700 -1338777705 -934763624 -735232732 -2027129966 -1054982610 829595525 -1880929091 -1008841691 891394497 -1182214295 -1104760417 -1682937230 783849442 -1023195740 -194682360 -1398025119 293559962 205322453 -876774533 -1720026488 -36631226 -1351057571 -688823246 -65196218 -1761890906
REM
REM Al.pp (3b69e4bd14b647c3cd091ae36dc80706)
REM 
CELL 1.54180   20.00000   20.00000   20.00000   90.00000   90.00000   90.00000
LATT -1
SFAC Al 
Al     1  0.4743189612583  0.6147114507429  0.3972179198872 1.0
Al     1  0.5989036388215  0.6147116038747  0.5290026731222 1.0
Al     1  0.4224823549346  0.6147115806640  0.5710037909846 1.0
Al     1  0.6059624443822  0.4651663210367  0.4736492511507 1.0
Al     1  0.4668905964877  0.4651663909120  0.6047937549603 1.0
Al     1  0.4228520506787  0.4651662254089  0.4187817501699 1.0
Al     1  0.4365784326859  0.3745542823004  0.4805847100242 1.0
Al     1  0.5455764164192  0.3745542904028  0.4546352559381 1.0
Al     1  0.5135503097315  0.3745543688854  0.5620050078864 1.0
Al     1  0.5789790541011  0.6497266773448  0.4230572713624 1.0
Al     1  0.5241960143077  0.6497268133728  0.6067212623053 1.0
Al     1  0.3925298535666  0.6497266568481  0.4674457626554 1.0
Al     1  0.5424271209659  0.4796540886286  0.6832989960174 1.0
Al     1  0.3170962372957  0.4796538116319  0.4449456635006 1.0
Al     1  0.6361817201743  0.4796538529129  0.3689800603880 1.0
Al     1  0.5299814709146  0.4651662393259  0.3932771453694 1.0
Al     1  0.5744853688911  0.4651664026133  0.5791783548238 1.0
Al     1  0.3912382516166  0.4651663063394  0.5247692562617 1.0
Al     1  0.4597244955726  0.5260882325549  0.3359153781772 1.0
Al     1  0.6592905271134  0.5260884694788  0.5470148507864 1.0
Al     1  0.3766900066343  0.5260884385832  0.6142943715612 1.0
Al     1  0.5128284866166  0.5520554004424  0.5589731071935 1.0
Al     1  0.4395648514355  0.5520553146320  0.4814753679277 1.0
Al     1  0.5433116801140  0.5520553249561  0.4567760686857 1.0
Al     1  0.4687700104152  0.3758573821882  0.3739100075862 1.0
Al     1  0.6218636252946  0.3758575526101  0.5358513292368 1.0
Al     1  0.4050715221630  0.3758575377923  0.5874636338301 1.0
Al     1  0.5602629299116  0.2845102088157  0.5174772291077 1.0
Al     1  0.4517844021074  0.2845102015355  0.5433030039998 1.0
Al     1  0.4836578897117  0.2845101236656  0.4364449544188 1.0
Al     1  0.5654454348788  0.5638675303521  0.3521691418746 1.0
Al     1  0.5923538491531  0.5638677708432  0.6304449530657 1.0
Al     1  0.3379057188955  0.5638675937416  0.5146104121798 1.0
Al     1  0.4740400135042  0.5638677553765  0.6586122699252 1.0
Al     1  0.3726690214530  0.5638675048718  0.3980639763575 1.0
Al     1  0.6489959638236  0.5638676266877  0.4405482665703 1.0
Al     1  0.4985683089529  0.6455404709474  0.4990747691764 1.0
Al     1  0.4985683650156  0.4621729966798  0.4990749215318 1.0
END
