TITL Al-3341-3492-12 0.0000000000 8000.0000000000 -169.4943209115 0 0 38 (C2) n - 1
REM
REM Run started: at Wed 1 Jul 16:42:36 BST 2020 in /home/jrjturnbull/SummerProject/AIRSS/1_LJ/4
REM pp3 from code version 0.9.1 bugfix July 2018 build 013d7b7c2542+ Fri, 06 Jul 2018 19:26:36 +0100
REM
REM
REM
REM
REM ./Al.cell (c296b5e438cc78dca9f711add016f66f)
REM AIRSS Version 0.9.1 bugfix July 2018 build 013d7b7c2542+ Fri, 06 Jul 2018 19:26:36 +0100
REM compiler GCC version 7.5.0
REM options -cpp -imultiarch x86_64-linux-gnu -mtune=generic -march=x86-64 -g -O0
REM seed -2130861940 -517710185 509253100 661094784 -1149546253 382063558 -1920176398 -163119777 -521449576 -1638027682 197342023 -1916114167 -621808567 235721133 -1498131635 -165766729 -1023076654 1498845491 268692476 468206511 1867446705 998114780 -910123163 -658980952 -1353878529 484469318 2113413435 -913984202 -319550468 -1584929785 329880896 793695576 215981111
REM
REM Al.pp (3b69e4bd14b647c3cd091ae36dc80706)
REM 
CELL 1.54180   20.00000   20.00000   20.00000   90.00000   90.00000   90.00000
LATT -1
SFAC Al 
Al     1  0.4648873796010  0.5971887495720  0.3770017133382 1.0
Al     1  0.4648815525441  0.4028118348332  0.6229969917852 1.0
Al     1  0.5415822410980  0.5759201546187  0.4513912848731 1.0
Al     1  0.5415792183873  0.4240794145110  0.5486101791952 1.0
Al     1  0.6085041642998  0.4301019134091  0.3759303102369 1.0
Al     1  0.6085004068919  0.5698968237849  0.6240733907041 1.0
Al     1  0.4958298301116  0.4186385118722  0.3755544420624 1.0
Al     1  0.4958261671510  0.5813618326864  0.6244453792817 1.0
Al     1  0.6259169361310  0.6436530399703  0.4542692233023 1.0
Al     1  0.6259134589060  0.3563457985286  0.5457352322685 1.0
Al     1  0.3963245619860  0.6428286764774  0.4472973676952 1.0
Al     1  0.3963210898555  0.3571724167735  0.5526987900050 1.0
Al     1  0.4608680426718  0.5937245037593  0.5208826640957 1.0
Al     1  0.4608676373816  0.4062760162503  0.4791156739224 1.0
Al     1  0.5613509797833  0.6352500650053  0.5441342559973 1.0
Al     1  0.5613509534356  0.3647492611465  0.4558678566001 1.0
Al     1  0.3880043822432  0.5655146161674  0.6041041272441 1.0
Al     1  0.3880074697201  0.4344870498912  0.3958914940591 1.0
Al     1  0.6335220176722  0.4655272232779  0.5884869126939 1.0
Al     1  0.6335259351904  0.5344713124250  0.4115174551943 1.0
Al     1  0.3614953622837  0.5532869272927  0.5004830163207 1.0
Al     1  0.3614943720816  0.4467141097461  0.4995116538877 1.0
Al     1  0.6455502608073  0.5545853036653  0.5180791991164 1.0
Al     1  0.6455508696797  0.4454129448603  0.4819256304652 1.0
Al     1  0.4382461123468  0.4980292605417  0.6729684676125 1.0
Al     1  0.4382526537528  0.5019716989056  0.3270289118617 1.0
Al     1  0.5406428821827  0.4814757341174  0.6433793236255 1.0
Al     1  0.5406484119380  0.5185239008040  0.3566221662861 1.0
Al     1  0.5468569323575  0.5283769578169  0.5456828953998 1.0
Al     1  0.5468587167428  0.4716225395189  0.4543188322617 1.0
Al     1  0.4492207255965  0.4879727341985  0.5545287208919 1.0
Al     1  0.4492233113553  0.5120278619426  0.4454690561002 1.0
Al     1  0.3623951887168  0.5487834164797  0.3911807684361 1.0
Al     1  0.3623903674371  0.4512182687071  0.6088139595579 1.0
Al     1  0.5714961049639  0.6253865862268  0.3600248694970 1.0
Al     1  0.5714893366169  0.3746126415400  0.6399776201891 1.0
Al     1  0.5055398689857  0.3246237781517  0.5490437588515 1.0
Al     1  0.5055436970936  0.6753761205247  0.4509564050848 1.0
END
