TITL Al-3341-3492-192 0.0000000000 8000.0000000000 -164.7167806337 0 0 38 (Ci) n - 1
REM
REM Run started: at Wed 1 Jul 16:43:03 BST 2020 in /home/jrjturnbull/SummerProject/AIRSS/1_LJ/4
REM pp3 from code version 0.9.1 bugfix July 2018 build 013d7b7c2542+ Fri, 06 Jul 2018 19:26:36 +0100
REM
REM
REM
REM
REM ./Al.cell (c296b5e438cc78dca9f711add016f66f)
REM AIRSS Version 0.9.1 bugfix July 2018 build 013d7b7c2542+ Fri, 06 Jul 2018 19:26:36 +0100
REM compiler GCC version 7.5.0
REM options -cpp -imultiarch x86_64-linux-gnu -mtune=generic -march=x86-64 -g -O0
REM seed 1255416042 142761492 -1563220607 -1417266311 69987046 -1468653728 853483973 -564945164 -723144751 688803742 641601058 -474403979 -1177175031 -1703625193 208582897 296242885 756236192 481250136 834864498 328648800 -2061021122 528837605 1392847695 -1064608562 1982681327 1679011977 205796691 619695649 151887839 -1961070023 1915506795 -1788746444 17143728
REM
REM Al.pp (3b69e4bd14b647c3cd091ae36dc80706)
REM 
CELL 1.54180   20.00000   20.00000   20.00000   90.00000   90.00000   90.00000
LATT -1
SFAC Al 
Al     1  0.3302457671736  0.4404075166690  0.5673291837076 1.0
Al     1  0.6697542327611  0.5595924829209  0.4326708144769 1.0
Al     1  0.3981549160006  0.4821550578501  0.6604309412783 1.0
Al     1  0.6018450856658  0.5178449404908  0.3395690585747 1.0
Al     1  0.4694282059533  0.4752805299675  0.4566008617951 1.0
Al     1  0.5305717933012  0.5247194734049  0.5433991369734 1.0
Al     1  0.4074996701243  0.3798951210311  0.6142895999505 1.0
Al     1  0.5925003277166  0.6201048775584  0.3857103986887 1.0
Al     1  0.5870645890374  0.3296276331227  0.5335223008700 1.0
Al     1  0.4129354120195  0.6703723671900  0.4664776991124 1.0
Al     1  0.3993488768939  0.5786666995291  0.4054591192083 1.0
Al     1  0.6006511229997  0.4213332998252  0.5945408821677 1.0
Al     1  0.5009551135391  0.3919421362794  0.5637331718765 1.0
Al     1  0.4990448860365  0.6080578613328  0.4362668303472 1.0
Al     1  0.6106280980624  0.5210956231190  0.6306544175271 1.0
Al     1  0.3893719048863  0.4789043764321  0.3693455827838 1.0
Al     1  0.4589266842770  0.5689804942420  0.6148390399463 1.0
Al     1  0.5410733152431  0.4310195060669  0.3851609612567 1.0
Al     1  0.5919397338192  0.6085304840469  0.5026852972039 1.0
Al     1  0.4080602670681  0.3914695173223  0.4973147012302 1.0
Al     1  0.5514583140820  0.7011502115997  0.4559482475729 1.0
Al     1  0.4485416825528  0.2988497880828  0.5440517501745 1.0
Al     1  0.6378407585486  0.5071100414247  0.5242373914321 1.0
Al     1  0.3621592409067  0.4928899596338  0.4757626082893 1.0
Al     1  0.6458927137056  0.4528427769398  0.4190176829253 1.0
Al     1  0.3541072855397  0.5471572218039  0.5809823185009 1.0
Al     1  0.5062000195303  0.3487459635571  0.4620538401966 1.0
Al     1  0.4937999810892  0.6512540362880  0.5379461605623 1.0
Al     1  0.5614162951230  0.6130506611489  0.6106839679774 1.0
Al     1  0.4385837058641  0.3869493372399  0.3893160315485 1.0
Al     1  0.3287067629869  0.5992140005015  0.4873891732821 1.0
Al     1  0.6712932366610  0.4007860007639  0.5126108283397 1.0
Al     1  0.5667051340229  0.4322919402045  0.4916083636163 1.0
Al     1  0.4332948639912  0.5677080610610  0.5083916385570 1.0
Al     1  0.4901663901762  0.5276381771622  0.3611687664797 1.0
Al     1  0.5098336116802  0.4723618245353  0.6388312319795 1.0
Al     1  0.4343171076847  0.4749276514030  0.5596825314877 1.0
Al     1  0.5656828932761  0.5250723482489  0.4403174681033 1.0
END
