TITL Al-3341-3492-64 0.0000000000 8000.0000000000 -166.6845186722 0 0 38 (C1) n - 1
REM
REM Run started: at Wed 1 Jul 16:42:43 BST 2020 in /home/jrjturnbull/SummerProject/AIRSS/1_LJ/4
REM pp3 from code version 0.9.1 bugfix July 2018 build 013d7b7c2542+ Fri, 06 Jul 2018 19:26:36 +0100
REM
REM
REM
REM
REM ./Al.cell (c296b5e438cc78dca9f711add016f66f)
REM AIRSS Version 0.9.1 bugfix July 2018 build 013d7b7c2542+ Fri, 06 Jul 2018 19:26:36 +0100
REM compiler GCC version 7.5.0
REM options -cpp -imultiarch x86_64-linux-gnu -mtune=generic -march=x86-64 -g -O0
REM seed 921410697 -1950010121 -711926209 -2109196779 -1184919102 -659120093 -853475639 1227788593 -1549097175 1667693723 -221704974 116331041 -638226708 568863033 1842003443 633306777 249035763 -922932178 847828905 -2011068402 -1486948995 1745234951 -558817444 -367891108 -851211349 -1643712144 661784042 438863417 433130811 1017837320 -1233020984 -2030733762 -1220271550
REM
REM Al.pp (3b69e4bd14b647c3cd091ae36dc80706)
REM 
CELL 1.54180   20.00000   20.00000   20.00000   90.00000   90.00000   90.00000
LATT -1
SFAC Al 
Al     1  0.5850832908359  0.4962102093589  0.6725185585556 1.0
Al     1  0.4739437297756  0.5133492428236  0.6871718099905 1.0
Al     1  0.4327046009037  0.3672860286326  0.3819216500393 1.0
Al     1  0.5382796917415  0.4045616958680  0.4064771503705 1.0
Al     1  0.5157943868350  0.4230032443119  0.6235517836203 1.0
Al     1  0.4091490961508  0.4325431052815  0.6532961676730 1.0
Al     1  0.4767677898470  0.3585343773693  0.4874351955536 1.0
Al     1  0.5381881671769  0.4546700829347  0.5090758970765 1.0
Al     1  0.3600473648561  0.4559465273226  0.3856048212239 1.0
Al     1  0.6242504744424  0.4688084485196  0.3827084124954 1.0
Al     1  0.4501991512721  0.4524298310681  0.4432763048257 1.0
Al     1  0.5345796786236  0.5176026874238  0.4211196392400 1.0
Al     1  0.6332625778525  0.5485409301145  0.5862015345679 1.0
Al     1  0.4062230747920  0.5368718760127  0.5945277643137 1.0
Al     1  0.3626279844873  0.4989741861932  0.4906143507271 1.0
Al     1  0.6340389384459  0.5040980317291  0.4858458462763 1.0
Al     1  0.5628671521715  0.6826015740550  0.5011388516069 1.0
Al     1  0.4860957558250  0.6258795481515  0.4423394320393 1.0
Al     1  0.4401689830577  0.4448967750038  0.5495901553375 1.0
Al     1  0.5193968377939  0.5265448033664  0.5912441372409 1.0
Al     1  0.6246853636851  0.3962769058888  0.4739176819063 1.0
Al     1  0.3707471256053  0.3881450090287  0.4789943485423 1.0
Al     1  0.4625067234827  0.5377729283845  0.5011699982309 1.0
Al     1  0.5598240575265  0.5763192383973  0.5082578861516 1.0
Al     1  0.3823197071757  0.6082879598350  0.4873055186736 1.0
Al     1  0.6587672505201  0.6165567179371  0.5004612380484 1.0
Al     1  0.6181873411714  0.4418359974253  0.5799742612329 1.0
Al     1  0.3341237513629  0.4337222460784  0.5739495183667 1.0
Al     1  0.5611754189396  0.3520092225854  0.5537009925560 1.0
Al     1  0.4122943707496  0.3463533713946  0.5789247865971 1.0
Al     1  0.5072793432529  0.5824888122516  0.3393678747022 1.0
Al     1  0.4738303458395  0.4700976101887  0.3398488409761 1.0
Al     1  0.6865416912065  0.5588992856550  0.4070823897910 1.0
Al     1  0.3135129641854  0.5570422443455  0.4116951690918 1.0
Al     1  0.4704688040930  0.6290943528619  0.5549021962863 1.0
Al     1  0.5673012672671  0.6318636285850  0.6035421804864 1.0
Al     1  0.4220984480945  0.5475702271135  0.4006183567608 1.0
Al     1  0.5906672989563  0.6123112365033  0.4106278988264 1.0
END
