TITL Al-3341-3492-180 0.0000000000 8000.0000000000 -167.4564014021 0 0 38 (C1) n - 1
REM
REM Run started: at Wed 1 Jul 16:43:02 BST 2020 in /home/jrjturnbull/SummerProject/AIRSS/1_LJ/4
REM pp3 from code version 0.9.1 bugfix July 2018 build 013d7b7c2542+ Fri, 06 Jul 2018 19:26:36 +0100
REM
REM
REM
REM
REM ./Al.cell (c296b5e438cc78dca9f711add016f66f)
REM AIRSS Version 0.9.1 bugfix July 2018 build 013d7b7c2542+ Fri, 06 Jul 2018 19:26:36 +0100
REM compiler GCC version 7.5.0
REM options -cpp -imultiarch x86_64-linux-gnu -mtune=generic -march=x86-64 -g -O0
REM seed -1387762146 -39854516 1706998158 1150014887 -93862631 2084914544 -1858064927 1372419945 1157359315 1155368495 -7282314 -17506899 -118565228 642370632 373683816 -1325101290 -1919966686 371946905 1126722425 1332737627 -1963943007 -678548447 -851977466 774161273 -1503087734 -2067543917 1370417147 -958920464 -1226739232 440278808 -1119168636 488244933 -998008511
REM
REM Al.pp (3b69e4bd14b647c3cd091ae36dc80706)
REM 
CELL 1.54180   20.00000   20.00000   20.00000   90.00000   90.00000   90.00000
LATT -1
SFAC Al 
Al     1  0.5740372895806  0.5354450135781  0.4456645886420 1.0
Al     1  0.4505310522507  0.5760058612448  0.5819392662814 1.0
Al     1  0.4117285067190  0.4708694537729  0.4392088696027 1.0
Al     1  0.5797609351913  0.4265937296875  0.5480331096568 1.0
Al     1  0.3761774186279  0.5086176524315  0.5351782744613 1.0
Al     1  0.4551156355200  0.3645506940083  0.4346157116399 1.0
Al     1  0.6533035194728  0.5036002666772  0.5198032272973 1.0
Al     1  0.5385377041070  0.6374977023319  0.4521695942743 1.0
Al     1  0.4894858665807  0.3633376930096  0.5412084707619 1.0
Al     1  0.6215460251758  0.4376111504633  0.4400800321161 1.0
Al     1  0.5338196989057  0.6445578508547  0.5598516530246 1.0
Al     1  0.3693948551466  0.5746232601041  0.4485478931479 1.0
Al     1  0.5603842580286  0.5946867491967  0.3536752858940 1.0
Al     1  0.3599737959266  0.5447219003361  0.6382198877788 1.0
Al     1  0.4313646722100  0.4228903701110  0.3430001008918 1.0
Al     1  0.5620271041939  0.4794274729540  0.6416074761016 1.0
Al     1  0.5351687327126  0.5849399605427  0.6518440149565 1.0
Al     1  0.3897048129773  0.5277973173821  0.3486220166889 1.0
Al     1  0.4878700926998  0.3984256051732  0.6454628581657 1.0
Al     1  0.6018383853160  0.4929053028092  0.3472648439004 1.0
Al     1  0.4721478856615  0.4688914360108  0.5634192585177 1.0
Al     1  0.5140092425000  0.4487817377319  0.4673644004585 1.0
Al     1  0.5524574391610  0.5371534020905  0.5503086530047 1.0
Al     1  0.4719885031738  0.5489682483041  0.4797687882963 1.0
Al     1  0.3904533448505  0.4004385426833  0.5180733614321 1.0
Al     1  0.5633150689199  0.3486571063234  0.4632368129644 1.0
Al     1  0.6279420865292  0.6086078332035  0.5092131197146 1.0
Al     1  0.4389562884674  0.6503047222011  0.4968415253665 1.0
Al     1  0.6368476958614  0.5617616625442  0.6130686752766 1.0
Al     1  0.4544228534736  0.6095409253030  0.3890064420155 1.0
Al     1  0.3848302254878  0.4369493513801  0.6216556079826 1.0
Al     1  0.5380523702724  0.4053717001582  0.3705962562916 1.0
Al     1  0.6650603573017  0.4522130290048  0.6159000320656 1.0
Al     1  0.6768187573753  0.5411521121766  0.4176839557474 1.0
Al     1  0.3504430671617  0.6144165091921  0.5515350812672 1.0
Al     1  0.3485891994061  0.3866449346200  0.4126332231137 1.0
Al     1  0.4589693590637  0.5053952751628  0.6669114699283 1.0
Al     1  0.4947812939904  0.5076496652412  0.3767861612734 1.0
END
