TITL Al-3341-3492-60 0.0000000000 8000.0000000000 -162.9271305236 0 0 38 (C3) n - 1
REM
REM Run started: at Wed 1 Jul 16:42:43 BST 2020 in /home/jrjturnbull/SummerProject/AIRSS/1_LJ/4
REM pp3 from code version 0.9.1 bugfix July 2018 build 013d7b7c2542+ Fri, 06 Jul 2018 19:26:36 +0100
REM
REM
REM
REM
REM ./Al.cell (c296b5e438cc78dca9f711add016f66f)
REM AIRSS Version 0.9.1 bugfix July 2018 build 013d7b7c2542+ Fri, 06 Jul 2018 19:26:36 +0100
REM compiler GCC version 7.5.0
REM options -cpp -imultiarch x86_64-linux-gnu -mtune=generic -march=x86-64 -g -O0
REM seed -754339147 -1989387495 -852175208 739977218 71714506 -330417122 562905861 1840977688 -624243763 601192433 -261620218 974900887 -1714439525 1652091437 123529728 -2011341982 109159571 -1568964162 -571095520 2023702522 461588750 -2049171686 214025360 449000345 -786200421 -1497470184 433324236 -402790019 -1202362734 1261983139 -951368523 -1878684346 -326725416
REM
REM Al.pp (3b69e4bd14b647c3cd091ae36dc80706)
REM 
CELL 1.54180   20.00000   20.00000   20.00000   90.00000   90.00000   90.00000
LATT -1
SFAC Al 
Al     1  0.3975763270692  0.5430097475265  0.5946158986896 1.0
Al     1  0.5136093848807  0.3918570035633  0.5946158572047 1.0
Al     1  0.5864949704393  0.5679209512369  0.5946158837401 1.0
Al     1  0.6179092273042  0.4488377745654  0.4118255357266 1.0
Al     1  0.4849982603365  0.6297569457317  0.4118255820518 1.0
Al     1  0.3947731399913  0.4241930864585  0.4118255550282 1.0
Al     1  0.3929932075509  0.4867717647731  0.5008473035960 1.0
Al     1  0.5646044665103  0.4160069349352  0.5008472711005 1.0
Al     1  0.5400829787263  0.6000090587350  0.5008473083269 1.0
Al     1  0.4751031167748  0.6873282356533  0.5118845626601 1.0
Al     1  0.3498625124623  0.3868379610923  0.5118845212800 1.0
Al     1  0.6727150268925  0.4286215544440  0.5118844940905 1.0
Al     1  0.3835028165717  0.6522755003783  0.5715741756211 1.0
Al     1  0.4260192227544  0.3250361184945  0.5715741089561 1.0
Al     1  0.6881586364273  0.5254760975297  0.5715741213708 1.0
Al     1  0.3244100183610  0.5723894202336  0.5156483867889 1.0
Al     1  0.5247489960913  0.3138033173788  0.5156483122741 1.0
Al     1  0.6485216426458  0.6165950128485  0.5156483620264 1.0
Al     1  0.5501680903353  0.5380130690804  0.4105547530117 1.0
Al     1  0.4416407525121  0.5265037534409  0.4105547620109 1.0
Al     1  0.5058717820336  0.4382709787366  0.4105547388100 1.0
Al     1  0.4934019323863  0.5653764941429  0.3207614945990 1.0
Al     1  0.4463264103242  0.4636611372900  0.3207614813687 1.0
Al     1  0.5579522547493  0.4737502178981  0.3207614714336 1.0
Al     1  0.4121123339115  0.4334464926478  0.5939518623896 1.0
Al     1  0.6012259428526  0.4592271828411  0.5939518466279 1.0
Al     1  0.4843424053081  0.6101140268394  0.5939518863020 1.0
Al     1  0.5712168845366  0.6770357027156  0.5710460557831 1.0
Al     1  0.3107192232730  0.4752211708558  0.5710460456385 1.0
Al     1  0.6157445661323  0.3505308428612  0.5710459859682 1.0
Al     1  0.5673483043922  0.3473950814411  0.4167743393837 1.0
Al     1  0.5981306754375  0.6366912381027  0.4167743902575 1.0
Al     1  0.3322016582270  0.5187014823384  0.4167743973052 1.0
Al     1  0.4318475027327  0.5875981179416  0.4986931715308 1.0
Al     1  0.4578591351265  0.3992425656000  0.4986931352105 1.0
Al     1  0.6079740138993  0.5159470764962  0.4986931412184 1.0
Al     1  0.4992268842897  0.5009292524053  0.5029117583488 1.0
Al     1  0.4992268957503  0.5009292307466  0.6100035422692 1.0
END
