TITL Al-3341-3492-164 0.0000000000 8000.0000000000 -161.7196063344 0 0 38 (C3) n - 1
REM
REM Run started: at Wed 1 Jul 16:42:59 BST 2020 in /home/jrjturnbull/SummerProject/AIRSS/1_LJ/4
REM pp3 from code version 0.9.1 bugfix July 2018 build 013d7b7c2542+ Fri, 06 Jul 2018 19:26:36 +0100
REM
REM
REM
REM
REM ./Al.cell (c296b5e438cc78dca9f711add016f66f)
REM AIRSS Version 0.9.1 bugfix July 2018 build 013d7b7c2542+ Fri, 06 Jul 2018 19:26:36 +0100
REM compiler GCC version 7.5.0
REM options -cpp -imultiarch x86_64-linux-gnu -mtune=generic -march=x86-64 -g -O0
REM seed 1362800500 -861623723 -1024560673 -1494015705 -1548114409 -759662497 -160597346 745596401 162287451 -2134407947 -1681687064 1918921435 308849726 -1828258373 1247594223 -528254627 685951377 645829984 -947448410 -37365704 -1003820796 1253753915 868111968 258210858 1425203961 2116126416 -522032586 -1360957578 -659390577 1980263765 1643055118 401294259 -1526684719
REM
REM Al.pp (3b69e4bd14b647c3cd091ae36dc80706)
REM 
CELL 1.54180   20.00000   20.00000   20.00000   90.00000   90.00000   90.00000
LATT -1
SFAC Al 
Al     1  0.6713133404906  0.4640163148035  0.6303132842543 1.0
Al     1  0.6713133723965  0.6321942176329  0.4739263534692 1.0
Al     1  0.6713133270095  0.4126702112323  0.4064734818730 1.0
Al     1  0.4199310056261  0.3915774994022  0.5672973005845 1.0
Al     1  0.4199310499823  0.6138402554764  0.5681682477105 1.0
Al     1  0.4199310257563  0.5034631398583  0.3752475809981 1.0
Al     1  0.3307432514630  0.5582441240036  0.6007526097272 1.0
Al     1  0.3307432494729  0.5594801165782  0.4071030791189 1.0
Al     1  0.3307432171080  0.3911567072908  0.5028574433785 1.0
Al     1  0.6908234625990  0.4418596086911  0.5225334034137 1.0
Al     1  0.6908234844973  0.5499324498786  0.5470045601359 1.0
Al     1  0.6908234765110  0.5170886726582  0.4411751559242 1.0
Al     1  0.5084989271138  0.4486904776660  0.4074953593916 1.0
Al     1  0.5084989289329  0.4468912002067  0.5986079115813 1.0
Al     1  0.5084989611811  0.6132991639243  0.5046098554980 1.0
Al     1  0.4192409838815  0.4484144620718  0.4721873875794 1.0
Al     1  0.4192409958484  0.5030541735892  0.5665009507616 1.0
Al     1  0.4192410056172  0.5574122594850  0.4720247909375 1.0
Al     1  0.4472884653460  0.3574837568131  0.4193321847062 1.0
Al     1  0.4472884970144  0.5027455698108  0.6716768476462 1.0
Al     1  0.4472885233741  0.6486515521139  0.4197040963998 1.0
Al     1  0.3310847751993  0.4468119695089  0.4068661980381 1.0
Al     1  0.3310847773885  0.4472856357945  0.6005493613603 1.0
Al     1  0.3310848097236  0.6147833424053  0.5032975727636 1.0
Al     1  0.5696310048349  0.5003143233904  0.6721289369158 1.0
Al     1  0.5696310318143  0.6502586605310  0.4215835494039 1.0
Al     1  0.5696309730428  0.3583078211733  0.4170006380143 1.0
Al     1  0.6012947892923  0.6142240189268  0.5645301074818 1.0
Al     1  0.6012947639702  0.5001204838489  0.3767342675099 1.0
Al     1  0.6012947452190  0.3945362833046  0.5694487478758 1.0
Al     1  0.5093659496338  0.5592134950022  0.5996068689665 1.0
Al     1  0.5093659470721  0.5580031389717  0.4068364157815 1.0
Al     1  0.5093659150440  0.3916642074498  0.5042698416174 1.0
Al     1  0.5957891296614  0.5563769277231  0.4720044483274 1.0
Al     1  0.5957891082392  0.4489144595868  0.4730941487471 1.0
Al     1  0.5957891201576  0.5035894019131  0.5656145259176 1.0
Al     1  0.3283957686143  0.5029603164345  0.5035710440905 1.0
Al     1  0.5071189398709  0.5029602808484  0.5035710420989 1.0
END
