TITL Al-3341-3492-2 0.0000000000 8000.0000000000 -152.2662676159 0 0 38 (Cs) n - 1
REM
REM Run started: at Wed 1 Jul 16:42:34 BST 2020 in /home/jrjturnbull/SummerProject/AIRSS/1_LJ/4
REM pp3 from code version 0.9.1 bugfix July 2018 build 013d7b7c2542+ Fri, 06 Jul 2018 19:26:36 +0100
REM
REM
REM
REM
REM ./Al.cell (c296b5e438cc78dca9f711add016f66f)
REM AIRSS Version 0.9.1 bugfix July 2018 build 013d7b7c2542+ Fri, 06 Jul 2018 19:26:36 +0100
REM compiler GCC version 7.5.0
REM options -cpp -imultiarch x86_64-linux-gnu -mtune=generic -march=x86-64 -g -O0
REM seed 1955870634 -1217373250 -158534534 -1164535386 -1627458448 -172358744 -1682672780 -1526042245 557871626 -1003742703 -358952071 307231055 -647519099 29719168 2044868719 165663257 556363481 1674646780 -212554178 1184396755 -130518083 -1756622993 -1258776111 -1396611458 203258237 -1551739511 1385728661 -303643098 -6681129 453151513 1262208177 -1562402844 791602299
REM
REM Al.pp (3b69e4bd14b647c3cd091ae36dc80706)
REM 
CELL 1.54180   20.00000   20.00000   20.00000   90.00000   90.00000   90.00000
LATT -1
SFAC Al 
Al     1  0.6449574648810  0.6210682395588  0.5067887142897 1.0
Al     1  0.3550426311225  0.6210682127581  0.5067887305108 1.0
Al     1  0.4444300576802  0.3187617737736  0.3626836879689 1.0
Al     1  0.5555699681609  0.3187618506280  0.3626835569309 1.0
Al     1  0.4459872452304  0.5902058512062  0.6276765396829 1.0
Al     1  0.5540125331686  0.5902059468863  0.6276763706343 1.0
Al     1  0.6445944249030  0.4848807392081  0.3709920643472 1.0
Al     1  0.3554057438857  0.4848807062601  0.3709920696271 1.0
Al     1  0.6440625469351  0.5141567468825  0.4781749501990 1.0
Al     1  0.3559374824094  0.5141567089370  0.4781749632273 1.0
Al     1  0.5543075502837  0.6374050715862  0.4437277610670 1.0
Al     1  0.4456926553571  0.6374049186569  0.4437279171184 1.0
Al     1  0.4463331501411  0.4250992390575  0.3891278095986 1.0
Al     1  0.5536669604360  0.4250993528461  0.3891276137333 1.0
Al     1  0.4460293730664  0.3471054576214  0.4689762240275 1.0
Al     1  0.5539704701361  0.3471055988209  0.4689760500508 1.0
Al     1  0.3548316965933  0.5923517436284  0.3994170279313 1.0
Al     1  0.6451685013777  0.5923517799024  0.3994170086542 1.0
Al     1  0.6441864733776  0.5434613229765  0.5854884119002 1.0
Al     1  0.3558133714312  0.5434612810400  0.5854884032065 1.0
Al     1  0.3553870849069  0.4364067849994  0.5564398330579 1.0
Al     1  0.6446127481464  0.4364068376209  0.5564398294920 1.0
Al     1  0.4466212195590  0.4829995753467  0.5992568553913 1.0
Al     1  0.5533785279838  0.4829997055085  0.5992566443329 1.0
Al     1  0.4466623651552  0.4538521873632  0.4945330496755 1.0
Al     1  0.5533375881339  0.4538523275152  0.4945328475456 1.0
Al     1  0.5555362040009  0.5111595759434  0.7046266214335 1.0
Al     1  0.4444639936738  0.5111595208481  0.7046268159893 1.0
Al     1  0.5533878705402  0.5599647925466  0.5218314299834 1.0
Al     1  0.4466121299874  0.5599646468761  0.5218316235369 1.0
Al     1  0.5538427678963  0.5310821676875  0.4162041585236 1.0
Al     1  0.4461573704648  0.5310820319828  0.4162043443079 1.0
Al     1  0.4457326178080  0.3762856868070  0.5743850649054 1.0
Al     1  0.5542671357555  0.3762858195625  0.5743848831080 1.0
Al     1  0.5544118381503  0.6671237557730  0.5498721457809 1.0
Al     1  0.4455882668002  0.6671236250316  0.5498722834571 1.0
Al     1  0.3557385785427  0.4066292966486  0.4497979483159 1.0
Al     1  0.6442613919177  0.4066293197039  0.4497979464570 1.0
END
