TITL Al-3341-3492-139 0.0000000000 8000.0000000000 -162.1499831197 0 0 38 (C3) n - 1
REM
REM Run started: at Wed 1 Jul 16:42:54 BST 2020 in /home/jrjturnbull/SummerProject/AIRSS/1_LJ/4
REM pp3 from code version 0.9.1 bugfix July 2018 build 013d7b7c2542+ Fri, 06 Jul 2018 19:26:36 +0100
REM
REM
REM
REM
REM ./Al.cell (c296b5e438cc78dca9f711add016f66f)
REM AIRSS Version 0.9.1 bugfix July 2018 build 013d7b7c2542+ Fri, 06 Jul 2018 19:26:36 +0100
REM compiler GCC version 7.5.0
REM options -cpp -imultiarch x86_64-linux-gnu -mtune=generic -march=x86-64 -g -O0
REM seed 197013357 -1245716596 1708098686 -1364350579 340109674 1403973730 -1202721100 -1706198542 2082645339 -1312827765 -1609721334 675708075 1606142186 -1616674725 1193616635 -425580962 539806992 -1218112923 2132328911 -362922254 -82708610 -159355754 593048744 904702796 -843450923 487195074 1116223140 -496404883 -1720249984 462475927 -1320323047 256777168 941716971
REM
REM Al.pp (3b69e4bd14b647c3cd091ae36dc80706)
REM 
CELL 1.54180   20.00000   20.00000   20.00000   90.00000   90.00000   90.00000
LATT -1
SFAC Al 
Al     1  0.3928080652540  0.4597175570407  0.4626945666115 1.0
Al     1  0.5056789786734  0.6084493529568  0.4626970916480 1.0
Al     1  0.5780489298169  0.4363346733508  0.4626956677824 1.0
Al     1  0.4021508233939  0.6385675181973  0.4246338594679 1.0
Al     1  0.6558958019167  0.5109342017234  0.4246336510490 1.0
Al     1  0.4184895325966  0.3550003554399  0.4246333272071 1.0
Al     1  0.4646242931212  0.2943484071320  0.5103188409897 1.0
Al     1  0.3265569399841  0.6289394938821  0.5103193129701 1.0
Al     1  0.6853545139581  0.5812134613024  0.5103197261672 1.0
Al     1  0.3195714480274  0.5190452379595  0.5367101050699 1.0
Al     1  0.5936763702594  0.6422105989481  0.5367104848946 1.0
Al     1  0.5632886722273  0.3432465505330  0.5367097308360 1.0
Al     1  0.4291715506934  0.6728952859684  0.5249171472501 1.0
Al     1  0.6721132773326  0.4703684364949  0.5249166885705 1.0
Al     1  0.3752508170101  0.3612396408574  0.5249172443921 1.0
Al     1  0.4003484050426  0.4554043806281  0.5713144682552 1.0
Al     1  0.4981721685076  0.6040813541788  0.5713178331054 1.0
Al     1  0.5780170172813  0.4450212376965  0.5713161226812 1.0
Al     1  0.5863822056169  0.5381509381981  0.5075559688319 1.0
Al     1  0.4768171295753  0.4015919761850  0.5075547942928 1.0
Al     1  0.4133367792408  0.5647585939873  0.5075562234574 1.0
Al     1  0.4324431440980  0.4750613952817  0.3131573669031 1.0
Al     1  0.4991489994302  0.5664544393498  0.3131579528525 1.0
Al     1  0.5449447218512  0.4629889463870  0.3131574158938 1.0
Al     1  0.5474085235834  0.4662578299088  0.6770804909419 1.0
Al     1  0.4340423427055  0.4712935301513  0.6770797849076 1.0
Al     1  0.4950865686793  0.5669535388836  0.6770815440993 1.0
Al     1  0.5510581583191  0.5274173956873  0.4013381050036 1.0
Al     1  0.4851833199795  0.4375510716551  0.4013372758017 1.0
Al     1  0.4402947233771  0.5395340096331  0.4013379285019 1.0
Al     1  0.4009021134477  0.5597088568294  0.6140650697090 1.0
Al     1  0.5882265276221  0.5514467651610  0.6140647073477 1.0
Al     1  0.4874085347512  0.3933506706944  0.6140638388893 1.0
Al     1  0.5294856595487  0.3411645256659  0.4307024684769 1.0
Al     1  0.3346706000231  0.5493603067406  0.4307031563745 1.0
Al     1  0.6123801328096  0.6139773266874  0.4307034502276 1.0
Al     1  0.4921783282988  0.5015001985293  0.4866378433027 1.0
Al     1  0.4921798819458  0.5015029400940  0.5907976452372 1.0
END
