TITL Al-3341-3492-149 0.0000000000 8000.0000000000 -163.0529848207 0 0 38 (D2) n - 1
REM
REM Run started: at Wed 1 Jul 16:42:56 BST 2020 in /home/jrjturnbull/SummerProject/AIRSS/1_LJ/4
REM pp3 from code version 0.9.1 bugfix July 2018 build 013d7b7c2542+ Fri, 06 Jul 2018 19:26:36 +0100
REM
REM
REM
REM
REM ./Al.cell (c296b5e438cc78dca9f711add016f66f)
REM AIRSS Version 0.9.1 bugfix July 2018 build 013d7b7c2542+ Fri, 06 Jul 2018 19:26:36 +0100
REM compiler GCC version 7.5.0
REM options -cpp -imultiarch x86_64-linux-gnu -mtune=generic -march=x86-64 -g -O0
REM seed -524481126 -2056338208 597471746 -279211973 87567399 -1874357684 -1570163163 -1304162400 -942685158 1601821334 1294403821 2039874658 1731888344 -2073371507 -459663275 -247012783 1164992907 -211755563 -1739492375 638366644 -1311664025 792532217 736641916 -1316772211 -1117157748 391324453 -451111543 1167225787 461414587 -751187423 -1765747388 -13120500 1228894949
REM
REM Al.pp (3b69e4bd14b647c3cd091ae36dc80706)
REM 
CELL 1.54180   20.00000   20.00000   20.00000   90.00000   90.00000   90.00000
LATT -1
SFAC Al 
Al     1  0.3896544455255  0.4928367025643  0.4274929410295 1.0
Al     1  0.6103455914043  0.4928367395514  0.5725072566360 1.0
Al     1  0.6103463653797  0.5046783657359  0.4274939212435 1.0
Al     1  0.3896536715668  0.5046784026928  0.5725058810669 1.0
Al     1  0.5161680105840  0.6586102978306  0.5504410941126 1.0
Al     1  0.4838319078294  0.6586106081589  0.4495586793900 1.0
Al     1  0.4838313692951  0.3389044968687  0.5504411481857 1.0
Al     1  0.5161685489333  0.3389048076390  0.4495590786572 1.0
Al     1  0.3384000369943  0.5631750335773  0.4941084920522 1.0
Al     1  0.6616001124256  0.5631747625750  0.5058913846299 1.0
Al     1  0.6616001753526  0.4343403427347  0.4941103403870 1.0
Al     1  0.3383999741443  0.4343400716713  0.5058897829574 1.0
Al     1  0.4367634988753  0.5829202351373  0.3891176829560 1.0
Al     1  0.5632364110532  0.5829202156833  0.6108824221077 1.0
Al     1  0.5632375946686  0.4145948895704  0.3891182529208 1.0
Al     1  0.4367623152463  0.4145948701137  0.6108816419640 1.0
Al     1  0.5528386819368  0.5584761274247  0.5026713268370 1.0
Al     1  0.4471614964787  0.5584762960816  0.4973286886690 1.0
Al     1  0.4471614680279  0.4390388091022  0.5026707472687 1.0
Al     1  0.5528387104817  0.4390389778725  0.4973292371626 1.0
Al     1  0.6589973986628  0.5990754281664  0.3998532124693 1.0
Al     1  0.3410025649348  0.5990754237295  0.6001467239609 1.0
Al     1  0.3410036339423  0.3984396815195  0.3998515788575 1.0
Al     1  0.6589963295801  0.3984396771299  0.6001484847620 1.0
Al     1  0.4447743644239  0.5062131638688  0.6710616683737 1.0
Al     1  0.5552255059488  0.5062132461052  0.3289382871560 1.0
Al     1  0.5552236799521  0.4913018591125  0.6710623022939 1.0
Al     1  0.4447761904083  0.4913019414078  0.3289377420847 1.0
Al     1  0.4511406100442  0.5915876543820  0.6036840066748 1.0
Al     1  0.5488593096999  0.5915876591390  0.3963160904141 1.0
Al     1  0.5488582028689  0.4059274461128  0.6036844310217 1.0
Al     1  0.4511417167756  0.4059274508961  0.3963154717341 1.0
Al     1  0.4028299356105  0.6533437830408  0.5249220291178 1.0
Al     1  0.5971701282669  0.6533436822989  0.4750779988320 1.0
Al     1  0.5971698622283  0.3441714230180  0.5249230383876 1.0
Al     1  0.4028302016638  0.3441713222301  0.4750769336681 1.0
Al     1  0.4999995893037  0.4987575625030  0.5749607573567 1.0
Al     1  0.5000003894817  0.4987575427543  0.4250392426017 1.0
END
